Using: /usr/cad/synopsys/hspice/cur/hspice/linux64/hspice bhv.sp
 ****** HSPICE -- O-2018.09 linux64 (Aug 26 2018) ******                        
  Copyright (c) 1986 - 2019 by Synopsys, Inc. All Rights Reserved.              
  This software and the associated documentation are proprietary
  to Synopsys, Inc. This software may only be used in accordance
  with the terms and conditions of a written license agreement with
  Synopsys, Inc. All other use, reproduction, or distribution of
  this software is strictly prohibited.
  Input File: bhv.sp                                                            
  Command line options: /usr/cad/synopsys/hspice/cur/hspice/linux64/hspice bhv.sp
 lic:  
 lic: FLEXlm: SDK_11.6.9.6 
 lic: USER:   ychuang              HOSTNAME: adc 
 lic: HOSTID: "b4969141dd1f"       PID:      29241 
 lic: Using FLEXlm license file: 
 lic: 26585@lsnctu 
 lic: Checkout 1 hspice 
 lic: License/Maintenance for hspice will expire on 14-may-2019/2018.09 
 lic: 45(in_use)/90(total) FLOATING license(s) on SERVER 26585@lsnctu 
 lic:   
1****** HSPICE -- O-2018.09 linux64 (Aug 26 2018) ******                        
 ******  
 *behavior simulation

 ****** circuit name directory
 circuit number to circuit name directory
   number circuitname                     definition         multiplier
        0 main circuit
        1 xint2_bhv.                      int1_1bit_fb       1.00 
        2 xint2_bhv.xi14.                 inv_bhv            1.00 
        3 xint2_bhv.xcmp3.                cmp_clk            1.00 
        4 xint2_bhv.xpreamp_bhv.          preamp_cmp_b       1.00 
        5 xint2_bhv.xclk_fb.              clk_fb_1bit        1.00 
        6 xint2_bhv.xi10.                 dac_int_1bit       1.00 
        7 xint2_bhv.xi8.                  fdopb              1.00 
        8 xint2_bhv.xi9.                  tgb                1.00 
        9 xint2_bhv.xi16.                 tgb                1.00 
       10 xint2_bhv.xi0.                  tgb                1.00 
       11 xint2_bhv.xi1.                  tgb                1.00 
       12 xint2_bhv.xi2.                  tgb                1.00 
       13 xint2_bhv.xi3.                  tgb                1.00 
       14 xint2_bhv.xi5.                  tgb                1.00 
       15 xint2_bhv.xi7.                  tgb                1.00 
       16 xint2_bhv.xi13.                 tgb                1.00 
       17 xint2_bhv.xi12.                 tgb                1.00 
       18 xint2_bhv.xsw4.                 tgb                1.00 
       19 xint2_bhv.xsw1.                 tgb                1.00 
       20 xint2_bhv.xi52.                 tgb                1.00 
       21 xint2_bhv.xi15.                 tgb                1.00 
       22 xint2_bhv.xi14.xp1.             pmos_b             1.00 
       23 xint2_bhv.xi14.xn1.             nmos_b             1.00 
       24 xint2_bhv.xcmp3.xdff.           dff                1.00 
       25 xint2_bhv.xcmp3.xpreamp.        amp_cmp            1.00 
       26 xint2_bhv.xclk_fb.xi64.         inv_bhv            1.00 
       27 xint2_bhv.xclk_fb.xi20.         inv_bhv            1.00 
       28 xint2_bhv.xclk_fb.xi60.         inv_bhv            1.00 
       29 xint2_bhv.xclk_fb.xi59.         inv_bhv            1.00 
       30 xint2_bhv.xclk_fb.xi63.         inv_bhv            1.00 
       31 xint2_bhv.xclk_fb.xi62.         nand2_bhv          1.00 
       32 xint2_bhv.xclk_fb.xi19.         nand2_bhv          1.00 
       33 xint2_bhv.xi10.xi6.             tgb                1.00 
       34 xint2_bhv.xi10.xi7.             tgb                1.00 
       35 xint2_bhv.xi10.xi40.            tgb                1.00 
       36 xint2_bhv.xi10.xi41.            tgb                1.00 
       37 xint2_bhv.xcmp3.xdff.xi13.      dlatch             1.00 
       38 xint2_bhv.xcmp3.xdff.xi14.      dlatch             1.00 
       39 xint2_bhv.xclk_fb.xi64.xp1.     pmos_b             1.00 
       40 xint2_bhv.xclk_fb.xi64.xn1.     nmos_b             1.00 
       41 xint2_bhv.xclk_fb.xi20.xp1.     pmos_b             1.00 
       42 xint2_bhv.xclk_fb.xi20.xn1.     nmos_b             1.00 
       43 xint2_bhv.xclk_fb.xi60.xp1.     pmos_b             1.00 
       44 xint2_bhv.xclk_fb.xi60.xn1.     nmos_b             1.00 
       45 xint2_bhv.xclk_fb.xi59.xp1.     pmos_b             1.00 
       46 xint2_bhv.xclk_fb.xi59.xn1.     nmos_b             1.00 
       47 xint2_bhv.xclk_fb.xi63.xp1.     pmos_b             1.00 
       48 xint2_bhv.xclk_fb.xi63.xn1.     nmos_b             1.00 
       49 xint2_bhv.xclk_fb.xi62.xn1.     nmos_b             1.00 
       50 xint2_bhv.xclk_fb.xi62.xi9.     nmos_b             1.00 
       51 xint2_bhv.xclk_fb.xi62.xp1.     pmos_b             1.00 
       52 xint2_bhv.xclk_fb.xi62.xi10.    pmos_b             1.00 
       53 xint2_bhv.xclk_fb.xi19.xn1.     nmos_b             1.00 
       54 xint2_bhv.xclk_fb.xi19.xi9.     nmos_b             1.00 
       55 xint2_bhv.xclk_fb.xi19.xp1.     pmos_b             1.00 
       56 xint2_bhv.xclk_fb.xi19.xi10.    pmos_b             1.00 
       57 xint2_bhv.xcmp3.xdff.xi13.xi2.  inv_bhv            1.00 
       58 xint2_bhv.xcmp3.xdff.xi13.xi1.  inv_bhv            1.00 
       59 xint2_bhv.xcmp3.xdff.xi13.xi29. tgb                1.00 
       60 xint2_bhv.xcmp3.xdff.xi13.xsw1. tgb                1.00 
       61 xint2_bhv.xcmp3.xdff.xi14.xi2.  inv_bhv            1.00 
       62 xint2_bhv.xcmp3.xdff.xi14.xi1.  inv_bhv            1.00 
       63 xint2_bhv.xcmp3.xdff.xi14.xi29. tgb                1.00 
       64 xint2_bhv.xcmp3.xdff.xi14.xsw1. tgb                1.00 
       65 xint2_bhv.xcmp3.xdff.xi13.xi2.xp1.
                                            pmos_b             1.00 
       66 xint2_bhv.xcmp3.xdff.xi13.xi2.xn1.
                                            nmos_b             1.00 
       67 xint2_bhv.xcmp3.xdff.xi13.xi1.xp1.
                                            pmos_b             1.00 
       68 xint2_bhv.xcmp3.xdff.xi13.xi1.xn1.
                                            nmos_b             1.00 
       69 xint2_bhv.xcmp3.xdff.xi14.xi2.xp1.
                                            pmos_b             1.00 
       70 xint2_bhv.xcmp3.xdff.xi14.xi2.xn1.
                                            nmos_b             1.00 
       71 xint2_bhv.xcmp3.xdff.xi14.xi1.xp1.
                                            pmos_b             1.00 
       72 xint2_bhv.xcmp3.xdff.xi14.xi1.xn1.
                                            nmos_b             1.00 
  **info** (bhv.sp:85) DC voltage reset to initial transient source value in source 0:vinn. new dc=0.0000D+00
  
  **warning** No connections on node iref_1; Node ignored.

  **warning** the following singular supplies were terminated to 1 meg resistor 
          supply       node1            node2
(bhv.sp:44)vdgnd                   0:dgnd             defined in subckt 0                     0:0                defined in subckt 0               
(bhv.sp:43)vdvdd                   0:dvdd             defined in subckt 0                     0:0                defined in subckt 0               
(bhv.sp:74)vrst_b                  0:rst_b            defined in subckt 0                     0:0                defined in subckt 0               
(bhv.sp:81)evcml                   0:vcml             defined in subckt 0                     0:0                defined in subckt 0               
(bhv.sp:90)v_refn                  0:vrefn            defined in subckt 0                     0:0                defined in subckt 0               
(bhv.sp:89)v_refp                  0:vrefp            defined in subckt 0                     0:0                defined in subckt 0               
(../et710/ece627_bhv_ckt.cir:65)e1                      7:vcmi             defined in subckt fdopb                 0:0                defined in subckt 0               
      

Element variations(Local):   element              parameter
 *****************************************************************
 ******  option summary
 ******
 runlvl  = 3         bypass  = 2.0000    
             
 Summary of Linear Res Distribution Info
 ---------------------------------------
 |Range          |Total     |Percent(%)|
 |---------------+----------+----------|
 |1e+00  ~  1e+03|21        |15.4412   |
 |1e+03  ~  1e+05|2         |1.4706    |
 |1e+05  ~  1e+06|10        |7.3529    |
 |1e+08  ~  1e+09|2         |1.4706    |
 |1e+09  ~  1e+10|1         |0.7353    |
 |1e+11  ~  1e+12|100       |73.5294   |
 ---------------------------------------
              
             
 Summary of Linear Cap Distribution Info
 ---------------------------------------
 |Range          |Total     |Percent(%)|
 |---------------+----------+----------|
 |1e-17  ~  1e-16|50        |56.1798   |
 |1e-16  ~  1e-15|8         |8.9888    |
 |1e-15  ~  1e-14|16        |17.9775   |
 |1e-14  ~  1e-13|15        |16.8539   |
 ---------------------------------------
              
             
 Summary of Detailed RC Type Statistics
 -----------------------------
 |Element Type    |Number    |
 |----------------+----------|
 |Constant Res    |129       |
 |Other Linear Res|7         |
 |                |          |
 |Constant Cap    |89        |
 -----------------------------
              
  Opening plot unit= 15
 file=bhv.pa0

 **info** dc convergence successful at Newton-Raphson method 
 ******  
 *behavior simulation

 ****** operating point information tnom=  25.000 temp=  27.000 ******
 ****** operating point status is voltage   simulation time is     0.     
     node    =voltage       node    =voltage       node    =voltage

 + 0:agnd    =   0.       0:avdd    =   1.8000   0:cinn    = 449.7751u
 + 0:cinp    = 449.7751u  0:dacn    = 9.197e-21  0:dacp    =-9.197e-21
 + 0:dgnd    =   0.       0:dout    =   1.8000   0:dvdd    =   1.8000 
 + 0:inn     =  27.6200a  0:inp     = -27.6200a  0:iref_1  =   0.     
 + 0:iref_2  =   0.       0:opin    = 449.7751u  0:opip    = 449.7751u
 + 0:out_int1= 900.0000m  0:out_int1= 900.0000m  0:p1      =   0.     
 + 0:p1_b    =   1.8000   0:p1a     =   0.       0:p1d     =   0.     
 + 0:p1d_b   =   1.8000   0:p1da    =   0.       0:p1dna   =   1.8000 
 + 0:p1na    =   1.8000   0:p2      =   0.       0:p2_b    =   1.8000 
 + 0:p2a     =   0.       0:p2d     =   0.       0:p2d_b   =   1.8000 
 + 0:p2da    =   0.       0:p2dna   =   1.8000   0:p2na    =   1.8000 
 + 0:pdn     =   0.       0:rst     =   0.       0:rst_b   =   1.8000 
 + 0:vcm     = 900.0000m  0:vcm1    = -27.6200a  0:vcml    = 900.0000m
 + 0:vrefn   =   0.       0:vrefp   =   1.8000   1:acn_cmp = 449.5507u
 + 1:acp_cmp = 449.5507u  1:amp_n   = 900.0000m  1:amp_p   = 900.0000m
 + 1:d_b     =  18.0000f  1:opin_cmp= 899.1009u  1:opip_cmp= 899.1009u
 + 1:pvrefn  =  18.0000f  1:pvrefn_b=   1.8000   1:pvrefp  =  18.0000f
 + 1:pvrefp_b=   1.8000   1:vrefn   =   0.       1:vrefp   =   0.     
 + 1:vthn    = 449.1016n  1:vthp    = 449.1016n  2:net23   =   1.8000 
 + 3:net22   = 1.800e-27  4:on1     =   0.       4:op1     =   0.     
 + 4:vcm1    = 900.0000m  5:d_b     =  18.0000f  5:net43   =   1.8000 
 + 5:net48   =   1.8000   7:vcmi    = 900.0000m 24:net275  =  18.0000f
 +25:vout1   =   0.      26:net23   =   1.8000  27:net23   =  18.0000f
 +28:net23   =  18.0000f 29:net23   =  18.0000f 30:net23   =   1.8000 
 +31:net8    = 899.1009u 32:net8    =   1.8000  37:net017  =   1.8000 
 +37:net22   =  18.0000f 37:net8    =   1.8000  38:net017  =   1.8000 
 +38:net22   =  18.0000f 38:net8    =   1.8000  57:net23   =  18.0000f
 +58:net23   =   1.8000  61:net23   =  18.0000f 62:net23   =   1.8000 

 **error** stop simulation by signal SIGINT = 2

 ******  
 *behavior simulation

 ****** job statistics summary tnom=  25.000 temp=  27.000 ******
  
 ******  Machine Information  ******
 CPU:
 model name	: Intel(R) Core(TM) i7-7820X CPU @ 3.60GHz
 cpu MHz	: 1199.926
  
 OS:
 Linux version 3.10.0-957.el7.x86_64 (mockbuild@kbuilder.bsys.centos.org) (gcc version 4.8.5 20150623 (Red Hat 4.8.5-36) (GCC) ) #1 SMP Thu Nov 8 23:39:32 UTC 2018


  ******  HSPICE Threads Information  ******

  Command Line Threads Count :     1
  Available CPU Count        :    16
  Actual Threads Count       :     1


  ******  Circuit Statistics  ******
  # nodes       =      85 # elements   =     304
  # resistors   =     136 # capacitors =      89 # inductors   =       0
  # mutual_inds =       0 # vccs       =      52 # vcvs        =       8
  # cccs        =       0 # ccvs       =       0 # volt_srcs   =      19
  # curr_srcs   =       0 # diodes     =       0 # bjts        =       0
  # jfets       =       0 # mosfets    =       0 # U elements  =       0
  # T elements  =       0 # W elements =       0 # B elements  =       0
  # S elements  =       0 # P elements =       0 # va device   =       0
  # vector_srcs =       0 # N elements =       0


  ******  Runtime Statistics (seconds)  ******

  analysis           time    # points   tot. iter  conv.iter
  op point           0.00           1           8
  transient          0.00       12801           0           0 rev=         0
  readin             0.03
  errchk             0.01
  setup              0.00
  output             0.00


           peak memory used        322.59 megabytes
           total cpu time            3.82 seconds
           total elapsed time        4.40 seconds
           job started at     11:49:39 05/08/2019
           job ended   at     11:49:43 05/08/2019


 lic: Release hspice token(s) 
 lic: total license checkout elapse time:        0.54(s)
