Using: /usr/cad/synopsys/hspice/cur/hspice/linux64/hspice bhv.sp
 ****** HSPICE -- O-2018.09 linux64 (Aug 26 2018) ******                        
  Copyright (c) 1986 - 2019 by Synopsys, Inc. All Rights Reserved.              
  This software and the associated documentation are proprietary
  to Synopsys, Inc. This software may only be used in accordance
  with the terms and conditions of a written license agreement with
  Synopsys, Inc. All other use, reproduction, or distribution of
  this software is strictly prohibited.
  Input File: bhv.sp                                                            
  Command line options: /usr/cad/synopsys/hspice/cur/hspice/linux64/hspice bhv.sp
 lic:  
 lic: FLEXlm: SDK_11.6.9.6 
 lic: USER:   ychuang              HOSTNAME: adc 
 lic: HOSTID: "b026281535a3"       PID:      110504 
 lic: Using FLEXlm license file: 
 lic: 26585@lsnctu 
 lic: Checkout 1 hspice 
 lic: License/Maintenance for hspice will expire on 14-may-2022/2018.09 
 lic: 137(in_use)/190(total) FLOATING license(s) on SERVER 26585@lsnctu 
 lic:   
1****** HSPICE -- O-2018.09 linux64 (Aug 26 2018) ******                        
 ******  
 *behavior simulation

 ****** circuit name directory
 circuit number to circuit name directory
   number circuitname                     definition         multiplier
        0 main circuit
        1 xvth.                           vth_9lev           1.00 
        2 xquantizer_1bit_0.              adder_cmp_1b_cifb
                                                                 1.00 
        3 xquantizer_1bit_1.              adder_cmp_1b_cifb
                                                                 1.00 
        4 xquantizer_1bit_2.              adder_cmp_1b_cifb
                                                                 1.00 
        5 xquantizer_1bit_3.              adder_cmp_1b_cifb
                                                                 1.00 
        6 xquantizer_1bit_4.              adder_cmp_1b_cifb
                                                                 1.00 
        7 xquantizer_1bit_5.              adder_cmp_1b_cifb
                                                                 1.00 
        8 xquantizer_1bit_6.              adder_cmp_1b_cifb
                                                                 1.00 
        9 xquantizer_1bit_7.              adder_cmp_1b_cifb
                                                                 1.00 
       10 xint4.                          int4_with_9lev_dac
                                                                 1.00 
       11 xint3.                          int3_with_9lev_dac
                                                                 1.00 
       12 xclk_fb_0.                      clk_fb_1bit        1.00 
       13 xclk_fb_1.                      clk_fb_1bit        1.00 
       14 xclk_fb_2.                      clk_fb_1bit        1.00 
       15 xclk_fb_3.                      clk_fb_1bit        1.00 
       16 xclk_fb_4.                      clk_fb_1bit        1.00 
       17 xclk_fb_5.                      clk_fb_1bit        1.00 
       18 xclk_fb_6.                      clk_fb_1bit        1.00 
       19 xclk_fb_7.                      clk_fb_1bit        1.00 
       20 xint2.                          int2_with_9lev_dac
                                                                 1.00 
       21 xint1.                          int1_with_9lev_dac
                                                                 1.00 
       22 xquantizer_1bit_0.xpreamp_bhv.  preamp_cmp_b       1.00 
       23 xquantizer_1bit_0.xcmp3.        cmp_clk            1.00 
       24 xquantizer_1bit_0.xi1.          inv_bhv            1.00 
       25 xquantizer_1bit_0.xi52.         tgb                1.00 
       26 xquantizer_1bit_0.xi55.         tgb                1.00 
       27 xquantizer_1bit_0.xi56.         tgb                1.00 
       28 xquantizer_1bit_0.xi60.         tgb                1.00 
       29 xquantizer_1bit_0.xi59.         tgb                1.00 
       30 xquantizer_1bit_0.xi13.         tgb                1.00 
       31 xquantizer_1bit_0.xi9.          tgb                1.00 
       32 xquantizer_1bit_0.xsw1.         tgb                1.00 
       33 xquantizer_1bit_0.xi2.          tgb                1.00 
       34 xquantizer_1bit_0.xsw4.         tgb                1.00 
       35 xquantizer_1bit_1.xpreamp_bhv.  preamp_cmp_b       1.00 
       36 xquantizer_1bit_1.xcmp3.        cmp_clk            1.00 
       37 xquantizer_1bit_1.xi1.          inv_bhv            1.00 
       38 xquantizer_1bit_1.xi52.         tgb                1.00 
       39 xquantizer_1bit_1.xi55.         tgb                1.00 
       40 xquantizer_1bit_1.xi56.         tgb                1.00 
       41 xquantizer_1bit_1.xi60.         tgb                1.00 
       42 xquantizer_1bit_1.xi59.         tgb                1.00 
       43 xquantizer_1bit_1.xi13.         tgb                1.00 
       44 xquantizer_1bit_1.xi9.          tgb                1.00 
       45 xquantizer_1bit_1.xsw1.         tgb                1.00 
       46 xquantizer_1bit_1.xi2.          tgb                1.00 
       47 xquantizer_1bit_1.xsw4.         tgb                1.00 
       48 xquantizer_1bit_2.xpreamp_bhv.  preamp_cmp_b       1.00 
       49 xquantizer_1bit_2.xcmp3.        cmp_clk            1.00 
       50 xquantizer_1bit_2.xi1.          inv_bhv            1.00 
       51 xquantizer_1bit_2.xi52.         tgb                1.00 
       52 xquantizer_1bit_2.xi55.         tgb                1.00 
       53 xquantizer_1bit_2.xi56.         tgb                1.00 
       54 xquantizer_1bit_2.xi60.         tgb                1.00 
       55 xquantizer_1bit_2.xi59.         tgb                1.00 
       56 xquantizer_1bit_2.xi13.         tgb                1.00 
       57 xquantizer_1bit_2.xi9.          tgb                1.00 
       58 xquantizer_1bit_2.xsw1.         tgb                1.00 
       59 xquantizer_1bit_2.xi2.          tgb                1.00 
       60 xquantizer_1bit_2.xsw4.         tgb                1.00 
       61 xquantizer_1bit_3.xpreamp_bhv.  preamp_cmp_b       1.00 
       62 xquantizer_1bit_3.xcmp3.        cmp_clk            1.00 
       63 xquantizer_1bit_3.xi1.          inv_bhv            1.00 
       64 xquantizer_1bit_3.xi52.         tgb                1.00 
       65 xquantizer_1bit_3.xi55.         tgb                1.00 
       66 xquantizer_1bit_3.xi56.         tgb                1.00 
       67 xquantizer_1bit_3.xi60.         tgb                1.00 
       68 xquantizer_1bit_3.xi59.         tgb                1.00 
       69 xquantizer_1bit_3.xi13.         tgb                1.00 
       70 xquantizer_1bit_3.xi9.          tgb                1.00 
       71 xquantizer_1bit_3.xsw1.         tgb                1.00 
       72 xquantizer_1bit_3.xi2.          tgb                1.00 
       73 xquantizer_1bit_3.xsw4.         tgb                1.00 
       74 xquantizer_1bit_4.xpreamp_bhv.  preamp_cmp_b       1.00 
       75 xquantizer_1bit_4.xcmp3.        cmp_clk            1.00 
       76 xquantizer_1bit_4.xi1.          inv_bhv            1.00 
       77 xquantizer_1bit_4.xi52.         tgb                1.00 
       78 xquantizer_1bit_4.xi55.         tgb                1.00 
       79 xquantizer_1bit_4.xi56.         tgb                1.00 
       80 xquantizer_1bit_4.xi60.         tgb                1.00 
       81 xquantizer_1bit_4.xi59.         tgb                1.00 
       82 xquantizer_1bit_4.xi13.         tgb                1.00 
       83 xquantizer_1bit_4.xi9.          tgb                1.00 
       84 xquantizer_1bit_4.xsw1.         tgb                1.00 
       85 xquantizer_1bit_4.xi2.          tgb                1.00 
       86 xquantizer_1bit_4.xsw4.         tgb                1.00 
       87 xquantizer_1bit_5.xpreamp_bhv.  preamp_cmp_b       1.00 
       88 xquantizer_1bit_5.xcmp3.        cmp_clk            1.00 
       89 xquantizer_1bit_5.xi1.          inv_bhv            1.00 
       90 xquantizer_1bit_5.xi52.         tgb                1.00 
       91 xquantizer_1bit_5.xi55.         tgb                1.00 
       92 xquantizer_1bit_5.xi56.         tgb                1.00 
       93 xquantizer_1bit_5.xi60.         tgb                1.00 
       94 xquantizer_1bit_5.xi59.         tgb                1.00 
       95 xquantizer_1bit_5.xi13.         tgb                1.00 
       96 xquantizer_1bit_5.xi9.          tgb                1.00 
       97 xquantizer_1bit_5.xsw1.         tgb                1.00 
       98 xquantizer_1bit_5.xi2.          tgb                1.00 
       99 xquantizer_1bit_5.xsw4.         tgb                1.00 
      100 xquantizer_1bit_6.xpreamp_bhv.  preamp_cmp_b       1.00 
      101 xquantizer_1bit_6.xcmp3.        cmp_clk            1.00 
      102 xquantizer_1bit_6.xi1.          inv_bhv            1.00 
      103 xquantizer_1bit_6.xi52.         tgb                1.00 
      104 xquantizer_1bit_6.xi55.         tgb                1.00 
      105 xquantizer_1bit_6.xi56.         tgb                1.00 
      106 xquantizer_1bit_6.xi60.         tgb                1.00 
      107 xquantizer_1bit_6.xi59.         tgb                1.00 
      108 xquantizer_1bit_6.xi13.         tgb                1.00 
      109 xquantizer_1bit_6.xi9.          tgb                1.00 
      110 xquantizer_1bit_6.xsw1.         tgb                1.00 
      111 xquantizer_1bit_6.xi2.          tgb                1.00 
      112 xquantizer_1bit_6.xsw4.         tgb                1.00 
      113 xquantizer_1bit_7.xpreamp_bhv.  preamp_cmp_b       1.00 
      114 xquantizer_1bit_7.xcmp3.        cmp_clk            1.00 
      115 xquantizer_1bit_7.xi1.          inv_bhv            1.00 
      116 xquantizer_1bit_7.xi52.         tgb                1.00 
      117 xquantizer_1bit_7.xi55.         tgb                1.00 
      118 xquantizer_1bit_7.xi56.         tgb                1.00 
      119 xquantizer_1bit_7.xi60.         tgb                1.00 
      120 xquantizer_1bit_7.xi59.         tgb                1.00 
      121 xquantizer_1bit_7.xi13.         tgb                1.00 
      122 xquantizer_1bit_7.xi9.          tgb                1.00 
      123 xquantizer_1bit_7.xsw1.         tgb                1.00 
      124 xquantizer_1bit_7.xi2.          tgb                1.00 
      125 xquantizer_1bit_7.xsw4.         tgb                1.00 
      126 xint4.xdac_0.                   dac_int_1bit       1.00 
      127 xint4.xdac_1.                   dac_int_1bit       1.00 
      128 xint4.xdac_2.                   dac_int_1bit       1.00 
      129 xint4.xdac_3.                   dac_int_1bit       1.00 
      130 xint4.xdac_4.                   dac_int_1bit       1.00 
      131 xint4.xdac_5.                   dac_int_1bit       1.00 
      132 xint4.xdac_6.                   dac_int_1bit       1.00 
      133 xint4.xdac_7.                   dac_int_1bit       1.00 
      134 xint4.xsw3.                     tgb                1.00 
      135 xint4.xsw7.                     tgb                1.00 
      136 xint4.xi1.                      tgb                1.00 
      137 xint4.xi66.                     tgb                1.00 
      138 xint4.xi3.                      tgb                1.00 
      139 xint4.xi2.                      tgb                1.00 
      140 xint4.xi65.                     tgb                1.00 
      141 xint4.xswinn_0.                 tgb                1.00 
      142 xint4.xswinn_1.                 tgb                1.00 
      143 xint4.xswinn_2.                 tgb                1.00 
      144 xint4.xswinn_3.                 tgb                1.00 
      145 xint4.xswinn_4.                 tgb                1.00 
      146 xint4.xswinn_5.                 tgb                1.00 
      147 xint4.xswinn_6.                 tgb                1.00 
      148 xint4.xswinn_7.                 tgb                1.00 
      149 xint4.xi4.                      tgb                1.00 
      150 xint4.xi5.                      tgb                1.00 
      151 xint4.xi0.                      tgb                1.00 
      152 xint4.xsw2.                     tgb                1.00 
      153 xint4.xsw6.                     tgb                1.00 
      154 xint4.xi12.                     tgb                1.00 
      155 xint4.xi13.                     tgb                1.00 
      156 xint4.xswinp_0.                 tgb                1.00 
      157 xint4.xswinp_1.                 tgb                1.00 
      158 xint4.xswinp_2.                 tgb                1.00 
      159 xint4.xswinp_3.                 tgb                1.00 
      160 xint4.xswinp_4.                 tgb                1.00 
      161 xint4.xswinp_5.                 tgb                1.00 
      162 xint4.xswinp_6.                 tgb                1.00 
      163 xint4.xswinp_7.                 tgb                1.00 
      164 xint4.xop.                      fdopb              1.00 
      165 xint3.xdac_0.                   dac_int_1bit       1.00 
      166 xint3.xdac_1.                   dac_int_1bit       1.00 
      167 xint3.xdac_2.                   dac_int_1bit       1.00 
      168 xint3.xdac_3.                   dac_int_1bit       1.00 
      169 xint3.xdac_4.                   dac_int_1bit       1.00 
      170 xint3.xdac_5.                   dac_int_1bit       1.00 
      171 xint3.xdac_6.                   dac_int_1bit       1.00 
      172 xint3.xdac_7.                   dac_int_1bit       1.00 
      173 xint3.xsw3.                     tgb                1.00 
      174 xint3.xsw7.                     tgb                1.00 
      175 xint3.xi1.                      tgb                1.00 
      176 xint3.xi66.                     tgb                1.00 
      177 xint3.xi3.                      tgb                1.00 
      178 xint3.xi2.                      tgb                1.00 
      179 xint3.xi65.                     tgb                1.00 
      180 xint3.xswinn_0.                 tgb                1.00 
      181 xint3.xswinn_1.                 tgb                1.00 
      182 xint3.xswinn_2.                 tgb                1.00 
      183 xint3.xswinn_3.                 tgb                1.00 
      184 xint3.xswinn_4.                 tgb                1.00 
      185 xint3.xswinn_5.                 tgb                1.00 
      186 xint3.xswinn_6.                 tgb                1.00 
      187 xint3.xswinn_7.                 tgb                1.00 
      188 xint3.xi4.                      tgb                1.00 
      189 xint3.xi5.                      tgb                1.00 
      190 xint3.xi0.                      tgb                1.00 
      191 xint3.xsw2.                     tgb                1.00 
      192 xint3.xsw6.                     tgb                1.00 
      193 xint3.xi12.                     tgb                1.00 
      194 xint3.xi13.                     tgb                1.00 
      195 xint3.xswinp_0.                 tgb                1.00 
      196 xint3.xswinp_1.                 tgb                1.00 
      197 xint3.xswinp_2.                 tgb                1.00 
      198 xint3.xswinp_3.                 tgb                1.00 
      199 xint3.xswinp_4.                 tgb                1.00 
      200 xint3.xswinp_5.                 tgb                1.00 
      201 xint3.xswinp_6.                 tgb                1.00 
      202 xint3.xswinp_7.                 tgb                1.00 
      203 xint3.xop.                      fdopb              1.00 
      204 xclk_fb_0.xi64.                 inv_bhv            1.00 
      205 xclk_fb_0.xi20.                 inv_bhv            1.00 
      206 xclk_fb_0.xi60.                 inv_bhv            1.00 
      207 xclk_fb_0.xi59.                 inv_bhv            1.00 
      208 xclk_fb_0.xi63.                 inv_bhv            1.00 
      209 xclk_fb_0.xi62.                 nand2_bhv          1.00 
      210 xclk_fb_0.xi19.                 nand2_bhv          1.00 
      211 xclk_fb_1.xi64.                 inv_bhv            1.00 
      212 xclk_fb_1.xi20.                 inv_bhv            1.00 
      213 xclk_fb_1.xi60.                 inv_bhv            1.00 
      214 xclk_fb_1.xi59.                 inv_bhv            1.00 
      215 xclk_fb_1.xi63.                 inv_bhv            1.00 
      216 xclk_fb_1.xi62.                 nand2_bhv          1.00 
      217 xclk_fb_1.xi19.                 nand2_bhv          1.00 
      218 xclk_fb_2.xi64.                 inv_bhv            1.00 
      219 xclk_fb_2.xi20.                 inv_bhv            1.00 
      220 xclk_fb_2.xi60.                 inv_bhv            1.00 
      221 xclk_fb_2.xi59.                 inv_bhv            1.00 
      222 xclk_fb_2.xi63.                 inv_bhv            1.00 
      223 xclk_fb_2.xi62.                 nand2_bhv          1.00 
      224 xclk_fb_2.xi19.                 nand2_bhv          1.00 
      225 xclk_fb_3.xi64.                 inv_bhv            1.00 
      226 xclk_fb_3.xi20.                 inv_bhv            1.00 
      227 xclk_fb_3.xi60.                 inv_bhv            1.00 
      228 xclk_fb_3.xi59.                 inv_bhv            1.00 
      229 xclk_fb_3.xi63.                 inv_bhv            1.00 
      230 xclk_fb_3.xi62.                 nand2_bhv          1.00 
      231 xclk_fb_3.xi19.                 nand2_bhv          1.00 
      232 xclk_fb_4.xi64.                 inv_bhv            1.00 
      233 xclk_fb_4.xi20.                 inv_bhv            1.00 
      234 xclk_fb_4.xi60.                 inv_bhv            1.00 
      235 xclk_fb_4.xi59.                 inv_bhv            1.00 
      236 xclk_fb_4.xi63.                 inv_bhv            1.00 
      237 xclk_fb_4.xi62.                 nand2_bhv          1.00 
      238 xclk_fb_4.xi19.                 nand2_bhv          1.00 
      239 xclk_fb_5.xi64.                 inv_bhv            1.00 
      240 xclk_fb_5.xi20.                 inv_bhv            1.00 
      241 xclk_fb_5.xi60.                 inv_bhv            1.00 
      242 xclk_fb_5.xi59.                 inv_bhv            1.00 
      243 xclk_fb_5.xi63.                 inv_bhv            1.00 
      244 xclk_fb_5.xi62.                 nand2_bhv          1.00 
      245 xclk_fb_5.xi19.                 nand2_bhv          1.00 
      246 xclk_fb_6.xi64.                 inv_bhv            1.00 
      247 xclk_fb_6.xi20.                 inv_bhv            1.00 
      248 xclk_fb_6.xi60.                 inv_bhv            1.00 
      249 xclk_fb_6.xi59.                 inv_bhv            1.00 
      250 xclk_fb_6.xi63.                 inv_bhv            1.00 
      251 xclk_fb_6.xi62.                 nand2_bhv          1.00 
      252 xclk_fb_6.xi19.                 nand2_bhv          1.00 
      253 xclk_fb_7.xi64.                 inv_bhv            1.00 
      254 xclk_fb_7.xi20.                 inv_bhv            1.00 
      255 xclk_fb_7.xi60.                 inv_bhv            1.00 
      256 xclk_fb_7.xi59.                 inv_bhv            1.00 
      257 xclk_fb_7.xi63.                 inv_bhv            1.00 
      258 xclk_fb_7.xi62.                 nand2_bhv          1.00 
      259 xclk_fb_7.xi19.                 nand2_bhv          1.00 
      260 xint2.xdac_0.                   dac_int_1bit       1.00 
      261 xint2.xdac_1.                   dac_int_1bit       1.00 
      262 xint2.xdac_2.                   dac_int_1bit       1.00 
      263 xint2.xdac_3.                   dac_int_1bit       1.00 
      264 xint2.xdac_4.                   dac_int_1bit       1.00 
      265 xint2.xdac_5.                   dac_int_1bit       1.00 
      266 xint2.xdac_6.                   dac_int_1bit       1.00 
      267 xint2.xdac_7.                   dac_int_1bit       1.00 
      268 xint2.xsw3.                     tgb                1.00 
      269 xint2.xsw7.                     tgb                1.00 
      270 xint2.xi1.                      tgb                1.00 
      271 xint2.xi66.                     tgb                1.00 
      272 xint2.xi3.                      tgb                1.00 
      273 xint2.xi2.                      tgb                1.00 
      274 xint2.xi65.                     tgb                1.00 
      275 xint2.xswinn_0.                 tgb                1.00 
      276 xint2.xswinn_1.                 tgb                1.00 
      277 xint2.xswinn_2.                 tgb                1.00 
      278 xint2.xswinn_3.                 tgb                1.00 
      279 xint2.xswinn_4.                 tgb                1.00 
      280 xint2.xswinn_5.                 tgb                1.00 
      281 xint2.xswinn_6.                 tgb                1.00 
      282 xint2.xswinn_7.                 tgb                1.00 
      283 xint2.xi4.                      tgb                1.00 
      284 xint2.xi5.                      tgb                1.00 
      285 xint2.xi0.                      tgb                1.00 
      286 xint2.xsw2.                     tgb                1.00 
      287 xint2.xsw6.                     tgb                1.00 
      288 xint2.xi12.                     tgb                1.00 
      289 xint2.xi13.                     tgb                1.00 
      290 xint2.xswinp_0.                 tgb                1.00 
      291 xint2.xswinp_1.                 tgb                1.00 
      292 xint2.xswinp_2.                 tgb                1.00 
      293 xint2.xswinp_3.                 tgb                1.00 
      294 xint2.xswinp_4.                 tgb                1.00 
      295 xint2.xswinp_5.                 tgb                1.00 
      296 xint2.xswinp_6.                 tgb                1.00 
      297 xint2.xswinp_7.                 tgb                1.00 
      298 xint2.xop.                      fdopb              1.00 
      299 xint1.xdac_0.                   dac_int_1bit       1.00 
      300 xint1.xdac_1.                   dac_int_1bit       1.00 
      301 xint1.xdac_2.                   dac_int_1bit       1.00 
      302 xint1.xdac_3.                   dac_int_1bit       1.00 
      303 xint1.xdac_4.                   dac_int_1bit       1.00 
      304 xint1.xdac_5.                   dac_int_1bit       1.00 
      305 xint1.xdac_6.                   dac_int_1bit       1.00 
      306 xint1.xdac_7.                   dac_int_1bit       1.00 
      307 xint1.xsw3.                     tgb                1.00 
      308 xint1.xsw7.                     tgb                1.00 
      309 xint1.xswinn_0.                 tgb                1.00 
      310 xint1.xswinn_1.                 tgb                1.00 
      311 xint1.xswinn_2.                 tgb                1.00 
      312 xint1.xswinn_3.                 tgb                1.00 
      313 xint1.xswinn_4.                 tgb                1.00 
      314 xint1.xswinn_5.                 tgb                1.00 
      315 xint1.xswinn_6.                 tgb                1.00 
      316 xint1.xswinn_7.                 tgb                1.00 
      317 xint1.xsw2.                     tgb                1.00 
      318 xint1.xsw6.                     tgb                1.00 
      319 xint1.xi12.                     tgb                1.00 
      320 xint1.xi13.                     tgb                1.00 
      321 xint1.xswinp_0.                 tgb                1.00 
      322 xint1.xswinp_1.                 tgb                1.00 
      323 xint1.xswinp_2.                 tgb                1.00 
      324 xint1.xswinp_3.                 tgb                1.00 
      325 xint1.xswinp_4.                 tgb                1.00 
      326 xint1.xswinp_5.                 tgb                1.00 
      327 xint1.xswinp_6.                 tgb                1.00 
      328 xint1.xswinp_7.                 tgb                1.00 
      329 xint1.xop.                      fdopb              1.00 
      330 xquantizer_1bit_0.xcmp3.xdff.   dff                1.00 
      331 xquantizer_1bit_0.xcmp3.xpreamp.
                                            amp_cmp            1.00 
      332 xquantizer_1bit_0.xi1.xp1.      pmos_b             1.00 
      333 xquantizer_1bit_0.xi1.xn1.      nmos_b             1.00 
      334 xquantizer_1bit_1.xcmp3.xdff.   dff                1.00 
      335 xquantizer_1bit_1.xcmp3.xpreamp.
                                            amp_cmp            1.00 
      336 xquantizer_1bit_1.xi1.xp1.      pmos_b             1.00 
      337 xquantizer_1bit_1.xi1.xn1.      nmos_b             1.00 
      338 xquantizer_1bit_2.xcmp3.xdff.   dff                1.00 
      339 xquantizer_1bit_2.xcmp3.xpreamp.
                                            amp_cmp            1.00 
      340 xquantizer_1bit_2.xi1.xp1.      pmos_b             1.00 
      341 xquantizer_1bit_2.xi1.xn1.      nmos_b             1.00 
      342 xquantizer_1bit_3.xcmp3.xdff.   dff                1.00 
      343 xquantizer_1bit_3.xcmp3.xpreamp.
                                            amp_cmp            1.00 
      344 xquantizer_1bit_3.xi1.xp1.      pmos_b             1.00 
      345 xquantizer_1bit_3.xi1.xn1.      nmos_b             1.00 
      346 xquantizer_1bit_4.xcmp3.xdff.   dff                1.00 
      347 xquantizer_1bit_4.xcmp3.xpreamp.
                                            amp_cmp            1.00 
      348 xquantizer_1bit_4.xi1.xp1.      pmos_b             1.00 
      349 xquantizer_1bit_4.xi1.xn1.      nmos_b             1.00 
      350 xquantizer_1bit_5.xcmp3.xdff.   dff                1.00 
      351 xquantizer_1bit_5.xcmp3.xpreamp.
                                            amp_cmp            1.00 
      352 xquantizer_1bit_5.xi1.xp1.      pmos_b             1.00 
      353 xquantizer_1bit_5.xi1.xn1.      nmos_b             1.00 
      354 xquantizer_1bit_6.xcmp3.xdff.   dff                1.00 
      355 xquantizer_1bit_6.xcmp3.xpreamp.
                                            amp_cmp            1.00 
      356 xquantizer_1bit_6.xi1.xp1.      pmos_b             1.00 
      357 xquantizer_1bit_6.xi1.xn1.      nmos_b             1.00 
      358 xquantizer_1bit_7.xcmp3.xdff.   dff                1.00 
      359 xquantizer_1bit_7.xcmp3.xpreamp.
                                            amp_cmp            1.00 
      360 xquantizer_1bit_7.xi1.xp1.      pmos_b             1.00 
      361 xquantizer_1bit_7.xi1.xn1.      nmos_b             1.00 
      362 xint4.xdac_0.xi6.               tgb                1.00 
      363 xint4.xdac_0.xi7.               tgb                1.00 
      364 xint4.xdac_0.xi40.              tgb                1.00 
      365 xint4.xdac_0.xi41.              tgb                1.00 
      366 xint4.xdac_1.xi6.               tgb                1.00 
      367 xint4.xdac_1.xi7.               tgb                1.00 
      368 xint4.xdac_1.xi40.              tgb                1.00 
      369 xint4.xdac_1.xi41.              tgb                1.00 
      370 xint4.xdac_2.xi6.               tgb                1.00 
      371 xint4.xdac_2.xi7.               tgb                1.00 
      372 xint4.xdac_2.xi40.              tgb                1.00 
      373 xint4.xdac_2.xi41.              tgb                1.00 
      374 xint4.xdac_3.xi6.               tgb                1.00 
      375 xint4.xdac_3.xi7.               tgb                1.00 
      376 xint4.xdac_3.xi40.              tgb                1.00 
      377 xint4.xdac_3.xi41.              tgb                1.00 
      378 xint4.xdac_4.xi6.               tgb                1.00 
      379 xint4.xdac_4.xi7.               tgb                1.00 
      380 xint4.xdac_4.xi40.              tgb                1.00 
      381 xint4.xdac_4.xi41.              tgb                1.00 
      382 xint4.xdac_5.xi6.               tgb                1.00 
      383 xint4.xdac_5.xi7.               tgb                1.00 
      384 xint4.xdac_5.xi40.              tgb                1.00 
      385 xint4.xdac_5.xi41.              tgb                1.00 
      386 xint4.xdac_6.xi6.               tgb                1.00 
      387 xint4.xdac_6.xi7.               tgb                1.00 
      388 xint4.xdac_6.xi40.              tgb                1.00 
      389 xint4.xdac_6.xi41.              tgb                1.00 
      390 xint4.xdac_7.xi6.               tgb                1.00 
      391 xint4.xdac_7.xi7.               tgb                1.00 
      392 xint4.xdac_7.xi40.              tgb                1.00 
      393 xint4.xdac_7.xi41.              tgb                1.00 
      394 xint3.xdac_0.xi6.               tgb                1.00 
      395 xint3.xdac_0.xi7.               tgb                1.00 
      396 xint3.xdac_0.xi40.              tgb                1.00 
      397 xint3.xdac_0.xi41.              tgb                1.00 
      398 xint3.xdac_1.xi6.               tgb                1.00 
      399 xint3.xdac_1.xi7.               tgb                1.00 
      400 xint3.xdac_1.xi40.              tgb                1.00 
      401 xint3.xdac_1.xi41.              tgb                1.00 
      402 xint3.xdac_2.xi6.               tgb                1.00 
      403 xint3.xdac_2.xi7.               tgb                1.00 
      404 xint3.xdac_2.xi40.              tgb                1.00 
      405 xint3.xdac_2.xi41.              tgb                1.00 
      406 xint3.xdac_3.xi6.               tgb                1.00 
      407 xint3.xdac_3.xi7.               tgb                1.00 
      408 xint3.xdac_3.xi40.              tgb                1.00 
      409 xint3.xdac_3.xi41.              tgb                1.00 
      410 xint3.xdac_4.xi6.               tgb                1.00 
      411 xint3.xdac_4.xi7.               tgb                1.00 
      412 xint3.xdac_4.xi40.              tgb                1.00 
      413 xint3.xdac_4.xi41.              tgb                1.00 
      414 xint3.xdac_5.xi6.               tgb                1.00 
      415 xint3.xdac_5.xi7.               tgb                1.00 
      416 xint3.xdac_5.xi40.              tgb                1.00 
      417 xint3.xdac_5.xi41.              tgb                1.00 
      418 xint3.xdac_6.xi6.               tgb                1.00 
      419 xint3.xdac_6.xi7.               tgb                1.00 
      420 xint3.xdac_6.xi40.              tgb                1.00 
      421 xint3.xdac_6.xi41.              tgb                1.00 
      422 xint3.xdac_7.xi6.               tgb                1.00 
      423 xint3.xdac_7.xi7.               tgb                1.00 
      424 xint3.xdac_7.xi40.              tgb                1.00 
      425 xint3.xdac_7.xi41.              tgb                1.00 
      426 xclk_fb_0.xi64.xp1.             pmos_b             1.00 
      427 xclk_fb_0.xi64.xn1.             nmos_b             1.00 
      428 xclk_fb_0.xi20.xp1.             pmos_b             1.00 
      429 xclk_fb_0.xi20.xn1.             nmos_b             1.00 
      430 xclk_fb_0.xi60.xp1.             pmos_b             1.00 
      431 xclk_fb_0.xi60.xn1.             nmos_b             1.00 
      432 xclk_fb_0.xi59.xp1.             pmos_b             1.00 
      433 xclk_fb_0.xi59.xn1.             nmos_b             1.00 
      434 xclk_fb_0.xi63.xp1.             pmos_b             1.00 
      435 xclk_fb_0.xi63.xn1.             nmos_b             1.00 
      436 xclk_fb_0.xi62.xn1.             nmos_b             1.00 
      437 xclk_fb_0.xi62.xi9.             nmos_b             1.00 
      438 xclk_fb_0.xi62.xp1.             pmos_b             1.00 
      439 xclk_fb_0.xi62.xi10.            pmos_b             1.00 
      440 xclk_fb_0.xi19.xn1.             nmos_b             1.00 
      441 xclk_fb_0.xi19.xi9.             nmos_b             1.00 
      442 xclk_fb_0.xi19.xp1.             pmos_b             1.00 
      443 xclk_fb_0.xi19.xi10.            pmos_b             1.00 
      444 xclk_fb_1.xi64.xp1.             pmos_b             1.00 
      445 xclk_fb_1.xi64.xn1.             nmos_b             1.00 
      446 xclk_fb_1.xi20.xp1.             pmos_b             1.00 
      447 xclk_fb_1.xi20.xn1.             nmos_b             1.00 
      448 xclk_fb_1.xi60.xp1.             pmos_b             1.00 
      449 xclk_fb_1.xi60.xn1.             nmos_b             1.00 
      450 xclk_fb_1.xi59.xp1.             pmos_b             1.00 
      451 xclk_fb_1.xi59.xn1.             nmos_b             1.00 
      452 xclk_fb_1.xi63.xp1.             pmos_b             1.00 
      453 xclk_fb_1.xi63.xn1.             nmos_b             1.00 
      454 xclk_fb_1.xi62.xn1.             nmos_b             1.00 
      455 xclk_fb_1.xi62.xi9.             nmos_b             1.00 
      456 xclk_fb_1.xi62.xp1.             pmos_b             1.00 
      457 xclk_fb_1.xi62.xi10.            pmos_b             1.00 
      458 xclk_fb_1.xi19.xn1.             nmos_b             1.00 
      459 xclk_fb_1.xi19.xi9.             nmos_b             1.00 
      460 xclk_fb_1.xi19.xp1.             pmos_b             1.00 
      461 xclk_fb_1.xi19.xi10.            pmos_b             1.00 
      462 xclk_fb_2.xi64.xp1.             pmos_b             1.00 
      463 xclk_fb_2.xi64.xn1.             nmos_b             1.00 
      464 xclk_fb_2.xi20.xp1.             pmos_b             1.00 
      465 xclk_fb_2.xi20.xn1.             nmos_b             1.00 
      466 xclk_fb_2.xi60.xp1.             pmos_b             1.00 
      467 xclk_fb_2.xi60.xn1.             nmos_b             1.00 
      468 xclk_fb_2.xi59.xp1.             pmos_b             1.00 
      469 xclk_fb_2.xi59.xn1.             nmos_b             1.00 
      470 xclk_fb_2.xi63.xp1.             pmos_b             1.00 
      471 xclk_fb_2.xi63.xn1.             nmos_b             1.00 
      472 xclk_fb_2.xi62.xn1.             nmos_b             1.00 
      473 xclk_fb_2.xi62.xi9.             nmos_b             1.00 
      474 xclk_fb_2.xi62.xp1.             pmos_b             1.00 
      475 xclk_fb_2.xi62.xi10.            pmos_b             1.00 
      476 xclk_fb_2.xi19.xn1.             nmos_b             1.00 
      477 xclk_fb_2.xi19.xi9.             nmos_b             1.00 
      478 xclk_fb_2.xi19.xp1.             pmos_b             1.00 
      479 xclk_fb_2.xi19.xi10.            pmos_b             1.00 
      480 xclk_fb_3.xi64.xp1.             pmos_b             1.00 
      481 xclk_fb_3.xi64.xn1.             nmos_b             1.00 
      482 xclk_fb_3.xi20.xp1.             pmos_b             1.00 
      483 xclk_fb_3.xi20.xn1.             nmos_b             1.00 
      484 xclk_fb_3.xi60.xp1.             pmos_b             1.00 
      485 xclk_fb_3.xi60.xn1.             nmos_b             1.00 
      486 xclk_fb_3.xi59.xp1.             pmos_b             1.00 
      487 xclk_fb_3.xi59.xn1.             nmos_b             1.00 
      488 xclk_fb_3.xi63.xp1.             pmos_b             1.00 
      489 xclk_fb_3.xi63.xn1.             nmos_b             1.00 
      490 xclk_fb_3.xi62.xn1.             nmos_b             1.00 
      491 xclk_fb_3.xi62.xi9.             nmos_b             1.00 
      492 xclk_fb_3.xi62.xp1.             pmos_b             1.00 
      493 xclk_fb_3.xi62.xi10.            pmos_b             1.00 
      494 xclk_fb_3.xi19.xn1.             nmos_b             1.00 
      495 xclk_fb_3.xi19.xi9.             nmos_b             1.00 
      496 xclk_fb_3.xi19.xp1.             pmos_b             1.00 
      497 xclk_fb_3.xi19.xi10.            pmos_b             1.00 
      498 xclk_fb_4.xi64.xp1.             pmos_b             1.00 
      499 xclk_fb_4.xi64.xn1.             nmos_b             1.00 
      500 xclk_fb_4.xi20.xp1.             pmos_b             1.00 
      501 xclk_fb_4.xi20.xn1.             nmos_b             1.00 
      502 xclk_fb_4.xi60.xp1.             pmos_b             1.00 
      503 xclk_fb_4.xi60.xn1.             nmos_b             1.00 
      504 xclk_fb_4.xi59.xp1.             pmos_b             1.00 
      505 xclk_fb_4.xi59.xn1.             nmos_b             1.00 
      506 xclk_fb_4.xi63.xp1.             pmos_b             1.00 
      507 xclk_fb_4.xi63.xn1.             nmos_b             1.00 
      508 xclk_fb_4.xi62.xn1.             nmos_b             1.00 
      509 xclk_fb_4.xi62.xi9.             nmos_b             1.00 
      510 xclk_fb_4.xi62.xp1.             pmos_b             1.00 
      511 xclk_fb_4.xi62.xi10.            pmos_b             1.00 
      512 xclk_fb_4.xi19.xn1.             nmos_b             1.00 
      513 xclk_fb_4.xi19.xi9.             nmos_b             1.00 
      514 xclk_fb_4.xi19.xp1.             pmos_b             1.00 
      515 xclk_fb_4.xi19.xi10.            pmos_b             1.00 
      516 xclk_fb_5.xi64.xp1.             pmos_b             1.00 
      517 xclk_fb_5.xi64.xn1.             nmos_b             1.00 
      518 xclk_fb_5.xi20.xp1.             pmos_b             1.00 
      519 xclk_fb_5.xi20.xn1.             nmos_b             1.00 
      520 xclk_fb_5.xi60.xp1.             pmos_b             1.00 
      521 xclk_fb_5.xi60.xn1.             nmos_b             1.00 
      522 xclk_fb_5.xi59.xp1.             pmos_b             1.00 
      523 xclk_fb_5.xi59.xn1.             nmos_b             1.00 
      524 xclk_fb_5.xi63.xp1.             pmos_b             1.00 
      525 xclk_fb_5.xi63.xn1.             nmos_b             1.00 
      526 xclk_fb_5.xi62.xn1.             nmos_b             1.00 
      527 xclk_fb_5.xi62.xi9.             nmos_b             1.00 
      528 xclk_fb_5.xi62.xp1.             pmos_b             1.00 
      529 xclk_fb_5.xi62.xi10.            pmos_b             1.00 
      530 xclk_fb_5.xi19.xn1.             nmos_b             1.00 
      531 xclk_fb_5.xi19.xi9.             nmos_b             1.00 
      532 xclk_fb_5.xi19.xp1.             pmos_b             1.00 
      533 xclk_fb_5.xi19.xi10.            pmos_b             1.00 
      534 xclk_fb_6.xi64.xp1.             pmos_b             1.00 
      535 xclk_fb_6.xi64.xn1.             nmos_b             1.00 
      536 xclk_fb_6.xi20.xp1.             pmos_b             1.00 
      537 xclk_fb_6.xi20.xn1.             nmos_b             1.00 
      538 xclk_fb_6.xi60.xp1.             pmos_b             1.00 
      539 xclk_fb_6.xi60.xn1.             nmos_b             1.00 
      540 xclk_fb_6.xi59.xp1.             pmos_b             1.00 
      541 xclk_fb_6.xi59.xn1.             nmos_b             1.00 
      542 xclk_fb_6.xi63.xp1.             pmos_b             1.00 
      543 xclk_fb_6.xi63.xn1.             nmos_b             1.00 
      544 xclk_fb_6.xi62.xn1.             nmos_b             1.00 
      545 xclk_fb_6.xi62.xi9.             nmos_b             1.00 
      546 xclk_fb_6.xi62.xp1.             pmos_b             1.00 
      547 xclk_fb_6.xi62.xi10.            pmos_b             1.00 
      548 xclk_fb_6.xi19.xn1.             nmos_b             1.00 
      549 xclk_fb_6.xi19.xi9.             nmos_b             1.00 
      550 xclk_fb_6.xi19.xp1.             pmos_b             1.00 
      551 xclk_fb_6.xi19.xi10.            pmos_b             1.00 
      552 xclk_fb_7.xi64.xp1.             pmos_b             1.00 
      553 xclk_fb_7.xi64.xn1.             nmos_b             1.00 
      554 xclk_fb_7.xi20.xp1.             pmos_b             1.00 
      555 xclk_fb_7.xi20.xn1.             nmos_b             1.00 
      556 xclk_fb_7.xi60.xp1.             pmos_b             1.00 
      557 xclk_fb_7.xi60.xn1.             nmos_b             1.00 
      558 xclk_fb_7.xi59.xp1.             pmos_b             1.00 
      559 xclk_fb_7.xi59.xn1.             nmos_b             1.00 
      560 xclk_fb_7.xi63.xp1.             pmos_b             1.00 
      561 xclk_fb_7.xi63.xn1.             nmos_b             1.00 
      562 xclk_fb_7.xi62.xn1.             nmos_b             1.00 
      563 xclk_fb_7.xi62.xi9.             nmos_b             1.00 
      564 xclk_fb_7.xi62.xp1.             pmos_b             1.00 
      565 xclk_fb_7.xi62.xi10.            pmos_b             1.00 
      566 xclk_fb_7.xi19.xn1.             nmos_b             1.00 
      567 xclk_fb_7.xi19.xi9.             nmos_b             1.00 
      568 xclk_fb_7.xi19.xp1.             pmos_b             1.00 
      569 xclk_fb_7.xi19.xi10.            pmos_b             1.00 
      570 xint2.xdac_0.xi6.               tgb                1.00 
      571 xint2.xdac_0.xi7.               tgb                1.00 
      572 xint2.xdac_0.xi40.              tgb                1.00 
      573 xint2.xdac_0.xi41.              tgb                1.00 
      574 xint2.xdac_1.xi6.               tgb                1.00 
      575 xint2.xdac_1.xi7.               tgb                1.00 
      576 xint2.xdac_1.xi40.              tgb                1.00 
      577 xint2.xdac_1.xi41.              tgb                1.00 
      578 xint2.xdac_2.xi6.               tgb                1.00 
      579 xint2.xdac_2.xi7.               tgb                1.00 
      580 xint2.xdac_2.xi40.              tgb                1.00 
      581 xint2.xdac_2.xi41.              tgb                1.00 
      582 xint2.xdac_3.xi6.               tgb                1.00 
      583 xint2.xdac_3.xi7.               tgb                1.00 
      584 xint2.xdac_3.xi40.              tgb                1.00 
      585 xint2.xdac_3.xi41.              tgb                1.00 
      586 xint2.xdac_4.xi6.               tgb                1.00 
      587 xint2.xdac_4.xi7.               tgb                1.00 
      588 xint2.xdac_4.xi40.              tgb                1.00 
      589 xint2.xdac_4.xi41.              tgb                1.00 
      590 xint2.xdac_5.xi6.               tgb                1.00 
      591 xint2.xdac_5.xi7.               tgb                1.00 
      592 xint2.xdac_5.xi40.              tgb                1.00 
      593 xint2.xdac_5.xi41.              tgb                1.00 
      594 xint2.xdac_6.xi6.               tgb                1.00 
      595 xint2.xdac_6.xi7.               tgb                1.00 
      596 xint2.xdac_6.xi40.              tgb                1.00 
      597 xint2.xdac_6.xi41.              tgb                1.00 
      598 xint2.xdac_7.xi6.               tgb                1.00 
      599 xint2.xdac_7.xi7.               tgb                1.00 
      600 xint2.xdac_7.xi40.              tgb                1.00 
      601 xint2.xdac_7.xi41.              tgb                1.00 
      602 xint1.xdac_0.xi6.               tgb                1.00 
      603 xint1.xdac_0.xi7.               tgb                1.00 
      604 xint1.xdac_0.xi40.              tgb                1.00 
      605 xint1.xdac_0.xi41.              tgb                1.00 
      606 xint1.xdac_1.xi6.               tgb                1.00 
      607 xint1.xdac_1.xi7.               tgb                1.00 
      608 xint1.xdac_1.xi40.              tgb                1.00 
      609 xint1.xdac_1.xi41.              tgb                1.00 
      610 xint1.xdac_2.xi6.               tgb                1.00 
      611 xint1.xdac_2.xi7.               tgb                1.00 
      612 xint1.xdac_2.xi40.              tgb                1.00 
      613 xint1.xdac_2.xi41.              tgb                1.00 
      614 xint1.xdac_3.xi6.               tgb                1.00 
      615 xint1.xdac_3.xi7.               tgb                1.00 
      616 xint1.xdac_3.xi40.              tgb                1.00 
      617 xint1.xdac_3.xi41.              tgb                1.00 
      618 xint1.xdac_4.xi6.               tgb                1.00 
      619 xint1.xdac_4.xi7.               tgb                1.00 
      620 xint1.xdac_4.xi40.              tgb                1.00 
      621 xint1.xdac_4.xi41.              tgb                1.00 
      622 xint1.xdac_5.xi6.               tgb                1.00 
      623 xint1.xdac_5.xi7.               tgb                1.00 
      624 xint1.xdac_5.xi40.              tgb                1.00 
      625 xint1.xdac_5.xi41.              tgb                1.00 
      626 xint1.xdac_6.xi6.               tgb                1.00 
      627 xint1.xdac_6.xi7.               tgb                1.00 
      628 xint1.xdac_6.xi40.              tgb                1.00 
      629 xint1.xdac_6.xi41.              tgb                1.00 
      630 xint1.xdac_7.xi6.               tgb                1.00 
      631 xint1.xdac_7.xi7.               tgb                1.00 
      632 xint1.xdac_7.xi40.              tgb                1.00 
      633 xint1.xdac_7.xi41.              tgb                1.00 
      634 xquantizer_1bit_0.xcmp3.xdff.xi13.
                                            dlatch             1.00 
      635 xquantizer_1bit_0.xcmp3.xdff.xi14.
                                            dlatch             1.00 
      636 xquantizer_1bit_1.xcmp3.xdff.xi13.
                                            dlatch             1.00 
      637 xquantizer_1bit_1.xcmp3.xdff.xi14.
                                            dlatch             1.00 
      638 xquantizer_1bit_2.xcmp3.xdff.xi13.
                                            dlatch             1.00 
      639 xquantizer_1bit_2.xcmp3.xdff.xi14.
                                            dlatch             1.00 
      640 xquantizer_1bit_3.xcmp3.xdff.xi13.
                                            dlatch             1.00 
      641 xquantizer_1bit_3.xcmp3.xdff.xi14.
                                            dlatch             1.00 
      642 xquantizer_1bit_4.xcmp3.xdff.xi13.
                                            dlatch             1.00 
      643 xquantizer_1bit_4.xcmp3.xdff.xi14.
                                            dlatch             1.00 
      644 xquantizer_1bit_5.xcmp3.xdff.xi13.
                                            dlatch             1.00 
      645 xquantizer_1bit_5.xcmp3.xdff.xi14.
                                            dlatch             1.00 
      646 xquantizer_1bit_6.xcmp3.xdff.xi13.
                                            dlatch             1.00 
      647 xquantizer_1bit_6.xcmp3.xdff.xi14.
                                            dlatch             1.00 
      648 xquantizer_1bit_7.xcmp3.xdff.xi13.
                                            dlatch             1.00 
      649 xquantizer_1bit_7.xcmp3.xdff.xi14.
                                            dlatch             1.00 
      650 xquantizer_1bit_0.xcmp3.xdff.xi13.xi2.
                                            inv_bhv            1.00 
      651 xquantizer_1bit_0.xcmp3.xdff.xi13.xi1.
                                            inv_bhv            1.00 
      652 xquantizer_1bit_0.xcmp3.xdff.xi13.xi29.
                                            tgb                1.00 
      653 xquantizer_1bit_0.xcmp3.xdff.xi13.xsw1.
                                            tgb                1.00 
      654 xquantizer_1bit_0.xcmp3.xdff.xi14.xi2.
                                            inv_bhv            1.00 
      655 xquantizer_1bit_0.xcmp3.xdff.xi14.xi1.
                                            inv_bhv            1.00 
      656 xquantizer_1bit_0.xcmp3.xdff.xi14.xi29.
                                            tgb                1.00 
      657 xquantizer_1bit_0.xcmp3.xdff.xi14.xsw1.
                                            tgb                1.00 
      658 xquantizer_1bit_1.xcmp3.xdff.xi13.xi2.
                                            inv_bhv            1.00 
      659 xquantizer_1bit_1.xcmp3.xdff.xi13.xi1.
                                            inv_bhv            1.00 
      660 xquantizer_1bit_1.xcmp3.xdff.xi13.xi29.
                                            tgb                1.00 
      661 xquantizer_1bit_1.xcmp3.xdff.xi13.xsw1.
                                            tgb                1.00 
      662 xquantizer_1bit_1.xcmp3.xdff.xi14.xi2.
                                            inv_bhv            1.00 
      663 xquantizer_1bit_1.xcmp3.xdff.xi14.xi1.
                                            inv_bhv            1.00 
      664 xquantizer_1bit_1.xcmp3.xdff.xi14.xi29.
                                            tgb                1.00 
      665 xquantizer_1bit_1.xcmp3.xdff.xi14.xsw1.
                                            tgb                1.00 
      666 xquantizer_1bit_2.xcmp3.xdff.xi13.xi2.
                                            inv_bhv            1.00 
      667 xquantizer_1bit_2.xcmp3.xdff.xi13.xi1.
                                            inv_bhv            1.00 
      668 xquantizer_1bit_2.xcmp3.xdff.xi13.xi29.
                                            tgb                1.00 
      669 xquantizer_1bit_2.xcmp3.xdff.xi13.xsw1.
                                            tgb                1.00 
      670 xquantizer_1bit_2.xcmp3.xdff.xi14.xi2.
                                            inv_bhv            1.00 
      671 xquantizer_1bit_2.xcmp3.xdff.xi14.xi1.
                                            inv_bhv            1.00 
      672 xquantizer_1bit_2.xcmp3.xdff.xi14.xi29.
                                            tgb                1.00 
      673 xquantizer_1bit_2.xcmp3.xdff.xi14.xsw1.
                                            tgb                1.00 
      674 xquantizer_1bit_3.xcmp3.xdff.xi13.xi2.
                                            inv_bhv            1.00 
      675 xquantizer_1bit_3.xcmp3.xdff.xi13.xi1.
                                            inv_bhv            1.00 
      676 xquantizer_1bit_3.xcmp3.xdff.xi13.xi29.
                                            tgb                1.00 
      677 xquantizer_1bit_3.xcmp3.xdff.xi13.xsw1.
                                            tgb                1.00 
      678 xquantizer_1bit_3.xcmp3.xdff.xi14.xi2.
                                            inv_bhv            1.00 
      679 xquantizer_1bit_3.xcmp3.xdff.xi14.xi1.
                                            inv_bhv            1.00 
      680 xquantizer_1bit_3.xcmp3.xdff.xi14.xi29.
                                            tgb                1.00 
      681 xquantizer_1bit_3.xcmp3.xdff.xi14.xsw1.
                                            tgb                1.00 
      682 xquantizer_1bit_4.xcmp3.xdff.xi13.xi2.
                                            inv_bhv            1.00 
      683 xquantizer_1bit_4.xcmp3.xdff.xi13.xi1.
                                            inv_bhv            1.00 
      684 xquantizer_1bit_4.xcmp3.xdff.xi13.xi29.
                                            tgb                1.00 
      685 xquantizer_1bit_4.xcmp3.xdff.xi13.xsw1.
                                            tgb                1.00 
      686 xquantizer_1bit_4.xcmp3.xdff.xi14.xi2.
                                            inv_bhv            1.00 
      687 xquantizer_1bit_4.xcmp3.xdff.xi14.xi1.
                                            inv_bhv            1.00 
      688 xquantizer_1bit_4.xcmp3.xdff.xi14.xi29.
                                            tgb                1.00 
      689 xquantizer_1bit_4.xcmp3.xdff.xi14.xsw1.
                                            tgb                1.00 
      690 xquantizer_1bit_5.xcmp3.xdff.xi13.xi2.
                                            inv_bhv            1.00 
      691 xquantizer_1bit_5.xcmp3.xdff.xi13.xi1.
                                            inv_bhv            1.00 
      692 xquantizer_1bit_5.xcmp3.xdff.xi13.xi29.
                                            tgb                1.00 
      693 xquantizer_1bit_5.xcmp3.xdff.xi13.xsw1.
                                            tgb                1.00 
      694 xquantizer_1bit_5.xcmp3.xdff.xi14.xi2.
                                            inv_bhv            1.00 
      695 xquantizer_1bit_5.xcmp3.xdff.xi14.xi1.
                                            inv_bhv            1.00 
      696 xquantizer_1bit_5.xcmp3.xdff.xi14.xi29.
                                            tgb                1.00 
      697 xquantizer_1bit_5.xcmp3.xdff.xi14.xsw1.
                                            tgb                1.00 
      698 xquantizer_1bit_6.xcmp3.xdff.xi13.xi2.
                                            inv_bhv            1.00 
      699 xquantizer_1bit_6.xcmp3.xdff.xi13.xi1.
                                            inv_bhv            1.00 
      700 xquantizer_1bit_6.xcmp3.xdff.xi13.xi29.
                                            tgb                1.00 
      701 xquantizer_1bit_6.xcmp3.xdff.xi13.xsw1.
                                            tgb                1.00 
      702 xquantizer_1bit_6.xcmp3.xdff.xi14.xi2.
                                            inv_bhv            1.00 
      703 xquantizer_1bit_6.xcmp3.xdff.xi14.xi1.
                                            inv_bhv            1.00 
      704 xquantizer_1bit_6.xcmp3.xdff.xi14.xi29.
                                            tgb                1.00 
      705 xquantizer_1bit_6.xcmp3.xdff.xi14.xsw1.
                                            tgb                1.00 
      706 xquantizer_1bit_7.xcmp3.xdff.xi13.xi2.
                                            inv_bhv            1.00 
      707 xquantizer_1bit_7.xcmp3.xdff.xi13.xi1.
                                            inv_bhv            1.00 
      708 xquantizer_1bit_7.xcmp3.xdff.xi13.xi29.
                                            tgb                1.00 
      709 xquantizer_1bit_7.xcmp3.xdff.xi13.xsw1.
                                            tgb                1.00 
      710 xquantizer_1bit_7.xcmp3.xdff.xi14.xi2.
                                            inv_bhv            1.00 
      711 xquantizer_1bit_7.xcmp3.xdff.xi14.xi1.
                                            inv_bhv            1.00 
      712 xquantizer_1bit_7.xcmp3.xdff.xi14.xi29.
                                            tgb                1.00 
      713 xquantizer_1bit_7.xcmp3.xdff.xi14.xsw1.
                                            tgb                1.00 
      714 xquantizer_1bit_0.xcmp3.xdff.xi13.xi2.xp1.
                                            pmos_b             1.00 
      715 xquantizer_1bit_0.xcmp3.xdff.xi13.xi2.xn1.
                                            nmos_b             1.00 
      716 xquantizer_1bit_0.xcmp3.xdff.xi13.xi1.xp1.
                                            pmos_b             1.00 
      717 xquantizer_1bit_0.xcmp3.xdff.xi13.xi1.xn1.
                                            nmos_b             1.00 
      718 xquantizer_1bit_0.xcmp3.xdff.xi14.xi2.xp1.
                                            pmos_b             1.00 
      719 xquantizer_1bit_0.xcmp3.xdff.xi14.xi2.xn1.
                                            nmos_b             1.00 
      720 xquantizer_1bit_0.xcmp3.xdff.xi14.xi1.xp1.
                                            pmos_b             1.00 
      721 xquantizer_1bit_0.xcmp3.xdff.xi14.xi1.xn1.
                                            nmos_b             1.00 
      722 xquantizer_1bit_1.xcmp3.xdff.xi13.xi2.xp1.
                                            pmos_b             1.00 
      723 xquantizer_1bit_1.xcmp3.xdff.xi13.xi2.xn1.
                                            nmos_b             1.00 
      724 xquantizer_1bit_1.xcmp3.xdff.xi13.xi1.xp1.
                                            pmos_b             1.00 
      725 xquantizer_1bit_1.xcmp3.xdff.xi13.xi1.xn1.
                                            nmos_b             1.00 
      726 xquantizer_1bit_1.xcmp3.xdff.xi14.xi2.xp1.
                                            pmos_b             1.00 
      727 xquantizer_1bit_1.xcmp3.xdff.xi14.xi2.xn1.
                                            nmos_b             1.00 
      728 xquantizer_1bit_1.xcmp3.xdff.xi14.xi1.xp1.
                                            pmos_b             1.00 
      729 xquantizer_1bit_1.xcmp3.xdff.xi14.xi1.xn1.
                                            nmos_b             1.00 
      730 xquantizer_1bit_2.xcmp3.xdff.xi13.xi2.xp1.
                                            pmos_b             1.00 
      731 xquantizer_1bit_2.xcmp3.xdff.xi13.xi2.xn1.
                                            nmos_b             1.00 
      732 xquantizer_1bit_2.xcmp3.xdff.xi13.xi1.xp1.
                                            pmos_b             1.00 
      733 xquantizer_1bit_2.xcmp3.xdff.xi13.xi1.xn1.
                                            nmos_b             1.00 
      734 xquantizer_1bit_2.xcmp3.xdff.xi14.xi2.xp1.
                                            pmos_b             1.00 
      735 xquantizer_1bit_2.xcmp3.xdff.xi14.xi2.xn1.
                                            nmos_b             1.00 
      736 xquantizer_1bit_2.xcmp3.xdff.xi14.xi1.xp1.
                                            pmos_b             1.00 
      737 xquantizer_1bit_2.xcmp3.xdff.xi14.xi1.xn1.
                                            nmos_b             1.00 
      738 xquantizer_1bit_3.xcmp3.xdff.xi13.xi2.xp1.
                                            pmos_b             1.00 
      739 xquantizer_1bit_3.xcmp3.xdff.xi13.xi2.xn1.
                                            nmos_b             1.00 
      740 xquantizer_1bit_3.xcmp3.xdff.xi13.xi1.xp1.
                                            pmos_b             1.00 
      741 xquantizer_1bit_3.xcmp3.xdff.xi13.xi1.xn1.
                                            nmos_b             1.00 
      742 xquantizer_1bit_3.xcmp3.xdff.xi14.xi2.xp1.
                                            pmos_b             1.00 
      743 xquantizer_1bit_3.xcmp3.xdff.xi14.xi2.xn1.
                                            nmos_b             1.00 
      744 xquantizer_1bit_3.xcmp3.xdff.xi14.xi1.xp1.
                                            pmos_b             1.00 
      745 xquantizer_1bit_3.xcmp3.xdff.xi14.xi1.xn1.
                                            nmos_b             1.00 
      746 xquantizer_1bit_4.xcmp3.xdff.xi13.xi2.xp1.
                                            pmos_b             1.00 
      747 xquantizer_1bit_4.xcmp3.xdff.xi13.xi2.xn1.
                                            nmos_b             1.00 
      748 xquantizer_1bit_4.xcmp3.xdff.xi13.xi1.xp1.
                                            pmos_b             1.00 
      749 xquantizer_1bit_4.xcmp3.xdff.xi13.xi1.xn1.
                                            nmos_b             1.00 
      750 xquantizer_1bit_4.xcmp3.xdff.xi14.xi2.xp1.
                                            pmos_b             1.00 
      751 xquantizer_1bit_4.xcmp3.xdff.xi14.xi2.xn1.
                                            nmos_b             1.00 
      752 xquantizer_1bit_4.xcmp3.xdff.xi14.xi1.xp1.
                                            pmos_b             1.00 
      753 xquantizer_1bit_4.xcmp3.xdff.xi14.xi1.xn1.
                                            nmos_b             1.00 
      754 xquantizer_1bit_5.xcmp3.xdff.xi13.xi2.xp1.
                                            pmos_b             1.00 
      755 xquantizer_1bit_5.xcmp3.xdff.xi13.xi2.xn1.
                                            nmos_b             1.00 
      756 xquantizer_1bit_5.xcmp3.xdff.xi13.xi1.xp1.
                                            pmos_b             1.00 
      757 xquantizer_1bit_5.xcmp3.xdff.xi13.xi1.xn1.
                                            nmos_b             1.00 
      758 xquantizer_1bit_5.xcmp3.xdff.xi14.xi2.xp1.
                                            pmos_b             1.00 
      759 xquantizer_1bit_5.xcmp3.xdff.xi14.xi2.xn1.
                                            nmos_b             1.00 
      760 xquantizer_1bit_5.xcmp3.xdff.xi14.xi1.xp1.
                                            pmos_b             1.00 
      761 xquantizer_1bit_5.xcmp3.xdff.xi14.xi1.xn1.
                                            nmos_b             1.00 
      762 xquantizer_1bit_6.xcmp3.xdff.xi13.xi2.xp1.
                                            pmos_b             1.00 
      763 xquantizer_1bit_6.xcmp3.xdff.xi13.xi2.xn1.
                                            nmos_b             1.00 
      764 xquantizer_1bit_6.xcmp3.xdff.xi13.xi1.xp1.
                                            pmos_b             1.00 
      765 xquantizer_1bit_6.xcmp3.xdff.xi13.xi1.xn1.
                                            nmos_b             1.00 
      766 xquantizer_1bit_6.xcmp3.xdff.xi14.xi2.xp1.
                                            pmos_b             1.00 
      767 xquantizer_1bit_6.xcmp3.xdff.xi14.xi2.xn1.
                                            nmos_b             1.00 
      768 xquantizer_1bit_6.xcmp3.xdff.xi14.xi1.xp1.
                                            pmos_b             1.00 
      769 xquantizer_1bit_6.xcmp3.xdff.xi14.xi1.xn1.
                                            nmos_b             1.00 
      770 xquantizer_1bit_7.xcmp3.xdff.xi13.xi2.xp1.
                                            pmos_b             1.00 
      771 xquantizer_1bit_7.xcmp3.xdff.xi13.xi2.xn1.
                                            nmos_b             1.00 
      772 xquantizer_1bit_7.xcmp3.xdff.xi13.xi1.xp1.
                                            pmos_b             1.00 
      773 xquantizer_1bit_7.xcmp3.xdff.xi13.xi1.xn1.
                                            nmos_b             1.00 
      774 xquantizer_1bit_7.xcmp3.xdff.xi14.xi2.xp1.
                                            pmos_b             1.00 
      775 xquantizer_1bit_7.xcmp3.xdff.xi14.xi2.xn1.
                                            nmos_b             1.00 
      776 xquantizer_1bit_7.xcmp3.xdff.xi14.xi1.xp1.
                                            pmos_b             1.00 
      777 xquantizer_1bit_7.xcmp3.xdff.xi14.xi1.xn1.
                                            nmos_b             1.00 
  **info** (bhv.sp:106) DC voltage reset to initial transient source value in source 0:vinn. new dc=0.0000D+00
  **warning** (bhv.sp:126) Unable to find referenced node int_n; Output variable ignored. Specify a valid node.
  
  **warning** No connections on node iref_1; Node ignored.

  **warning** the following singular supplies were terminated to 1 meg resistor 
          supply       node1            node2
(bhv.sp:45)vdgnd                   0:dgnd             defined in subckt 0                     0:0                defined in subckt 0               
(bhv.sp:44)vdvdd                   0:dvdd             defined in subckt 0                     0:0                defined in subckt 0               
(bhv.sp:70)vp1dna                  0:p1d_b            defined in subckt 0                     0:0                defined in subckt 0               
(bhv.sp:72)vp2na                   0:p2_b             defined in subckt 0                     0:0                defined in subckt 0               
(bhv.sp:74)vp2dna                  0:p2d_b            defined in subckt 0                     0:0                defined in subckt 0               
(bhv.sp:95)vrst_b                  0:rst_b            defined in subckt 0                     0:0                defined in subckt 0               
(../et710/ece627_bhv_ckt.cir:65)e1                    164:vcmi             defined in subckt fdopb                 0:0                defined in subckt 0               
(../et710/ece627_bhv_ckt.cir:65)e1                    203:vcmi             defined in subckt fdopb                 0:0                defined in subckt 0               
(../et710/ece627_bhv_ckt.cir:65)e1                    298:vcmi             defined in subckt fdopb                 0:0                defined in subckt 0               
(../et710/ece627_bhv_ckt.cir:65)e1                    329:vcmi             defined in subckt fdopb                 0:0                defined in subckt 0               
      

Element variations(Local):   element              parameter
 *****************************************************************
 ******  option summary
 ******
 runlvl  = 3         bypass  = 2.0000    
             
 Summary of Linear Res Distribution Info
 ---------------------------------------
 |Range          |Total     |Percent(%)|
 |---------------+----------+----------|
 |1e+00  ~  1e+03|104       |7.8195    |
 |1e+03  ~  1e+05|27        |2.0301    |
 |1e+05  ~  1e+06|23        |1.7293    |
 |1e+08  ~  1e+09|16        |1.2030    |
 |1e+09  ~  1e+10|8         |0.6015    |
 |1e+11  ~  1e+12|1152      |86.6165   |
 ---------------------------------------
              
             
 Summary of Linear Cap Distribution Info
 ---------------------------------------
 |Range          |Total     |Percent(%)|
 |---------------+----------+----------|
 |1e-17  ~  1e-16|576       |63.2967   |
 |1e-15  ~  1e-14|112       |12.3077   |
 |1e-14  ~  1e-13|56        |6.1538    |
 |1e-13  ~  1e-12|146       |16.0440   |
 |1e-12  ~  1e-11|20        |2.1978    |
 ---------------------------------------
              
             
 Summary of Detailed RC Type Statistics
 -----------------------------
 |Element Type    |Number    |
 |----------------+----------|
 |Constant Res    |1320      |
 |Other Linear Res|10        |
 |                |          |
 |Constant Cap    |910       |
 -----------------------------
              
  Opening plot unit= 15
 file=bhv.pa0

 **info** dc convergence successful at Newton-Raphson method 
 ******  
 *behavior simulation

 ****** operating point information tnom=  25.000 temp=  27.000 ******
 ****** operating point status is voltage   simulation time is     0.     
      node    =voltage        node    =voltage        node    =voltage

 +  0:agnd    =   0.        0:avdd    =   1.8000    0:dgnd    =   0.     
 +  0:dout_0  =   1.8000    0:dout_1  =   1.8000    0:dout_2  =   1.8000 
 +  0:dout_3  =   1.8000    0:dout_4  =   1.8000    0:dout_5  =   1.8000 
 +  0:dout_6  =   1.8000    0:dout_7  =   1.8000    0:dvdd    =   1.8000 
 +  0:inn     = 900.0000m   0:inp     = 900.0000m   0:int1_n  = 900.0000m
 +  0:int1_p  = 900.0000m   0:int2_n  = 900.0000m   0:int2_p  = 900.0000m
 +  0:int3_n  = 900.0000m   0:int3_p  = 900.0000m   0:int4_n  = 900.0000m
 +  0:int4_p  = 900.0000m   0:iref_1  =   0.        0:iref_2  =   0.     
 +  0:iref_3  =   0.        0:iref_4  =   0.        0:iref_cmp=   0.     
 +  0:iref_cmp=   0.        0:iref_cmp=   0.        0:iref_cmp=   0.     
 +  0:iref_cmp=   0.        0:iref_cmp=   0.        0:iref_cmp=   0.     
 +  0:iref_cmp=   0.        0:p1      =   0.        0:p1_b    =   1.8000 
 +  0:p1d     =   0.        0:p1d_b   =   1.8000    0:p2      =   0.     
 +  0:p2_b    =   1.8000    0:p2d     =   0.        0:p2d_b   =   1.8000 
 +  0:pdn     =   0.        0:pvrefn_0=  18.0000f   0:pvrefn_1=  18.0000f
 +  0:pvrefn_2=  18.0000f   0:pvrefn_3=  18.0000f   0:pvrefn_4=  18.0000f
 +  0:pvrefn_5=  18.0000f   0:pvrefn_6=  18.0000f   0:pvrefn_7=  18.0000f
 +  0:pvrefn_b=   1.8000    0:pvrefn_b=   1.8000    0:pvrefn_b=   1.8000 
 +  0:pvrefn_b=   1.8000    0:pvrefn_b=   1.8000    0:pvrefn_b=   1.8000 
 +  0:pvrefn_b=   1.8000    0:pvrefn_b=   1.8000    0:pvrefp_0=  18.0000f
 +  0:pvrefp_1=  18.0000f   0:pvrefp_2=  18.0000f   0:pvrefp_3=  18.0000f
 +  0:pvrefp_4=  18.0000f   0:pvrefp_5=  18.0000f   0:pvrefp_6=  18.0000f
 +  0:pvrefp_7=  18.0000f   0:pvrefp_b=   1.8000    0:pvrefp_b=   1.8000 
 +  0:pvrefp_b=   1.8000    0:pvrefp_b=   1.8000    0:pvrefp_b=   1.8000 
 +  0:pvrefp_b=   1.8000    0:pvrefp_b=   1.8000    0:pvrefp_b=   1.8000 
 +  0:rst     =   0.        0:rst_b   =   1.8000    0:vcm     = 900.0000m
 +  0:vcm1    = 900.0000m   0:vrefn   =   0.        0:vrefp   =   1.8000 
 +  0:vthp_0  = 112.5000m   0:vthp_1  = 337.5000m   0:vthp_2  = 562.4999m
 +  0:vthp_3  = 787.4999m   0:vthp_4  =   1.0125    0:vthp_5  =   1.2375 
 +  0:vthp_6  =   1.4625    0:vthp_7  =   1.6875    2:amp_n   = 900.0000m
 +  2:amp_p   = 900.0000m   2:d_b     =  18.0000f   2:net0107 = 899.1009u
 +  2:net0137 = 899.1009u   2:net0155 = 505.7442u   2:net0161 =   1.2925m
 +  2:opin    = 899.1009u   2:opip    = 899.1009u   3:amp_n   = 900.0000m
 +  3:amp_p   = 900.0000m   3:d_b     =  18.0000f   3:net0107 = 899.1009u
 +  3:net0137 = 899.1009u   3:net0155 = 618.1319u   3:net0161 =   1.1801m
 +  3:opin    = 899.1009u   3:opip    = 899.1009u   4:amp_n   = 900.0000m
 +  4:amp_p   = 900.0000m   4:d_b     =  18.0000f   4:net0107 = 899.1009u
 +  4:net0137 = 899.1009u   4:net0155 = 730.5195u   4:net0161 =   1.0677m
 +  4:opin    = 899.1009u   4:opip    = 899.1009u   5:amp_n   = 900.0000m
 +  5:amp_p   = 900.0000m   5:d_b     =  18.0000f   5:net0107 = 899.1009u
 +  5:net0137 = 899.1009u   5:net0155 = 842.9071u   5:net0161 = 955.2947u
 +  5:opin    = 899.1009u   5:opip    = 899.1009u   6:amp_n   = 900.0000m
 +  6:amp_p   = 900.0000m   6:d_b     =  18.0000f   6:net0107 = 899.1009u
 +  6:net0137 = 899.1009u   6:net0155 = 955.2947u   6:net0161 = 842.9071u
 +  6:opin    = 899.1009u   6:opip    = 899.1009u   7:amp_n   = 900.0000m
 +  7:amp_p   = 900.0000m   7:d_b     =  18.0000f   7:net0107 = 899.1009u
 +  7:net0137 = 899.1009u   7:net0155 =   1.0677m   7:net0161 = 730.5195u
 +  7:opin    = 899.1009u   7:opip    = 899.1009u   8:amp_n   = 900.0000m
 +  8:amp_p   = 900.0000m   8:d_b     =  18.0000f   8:net0107 = 899.1009u
 +  8:net0137 = 899.1009u   8:net0155 =   1.1801m   8:net0161 = 618.1319u
 +  8:opin    = 899.1009u   8:opip    = 899.1009u   9:amp_n   = 900.0000m
 +  9:amp_p   = 900.0000m   9:d_b     =  18.0000f   9:net0107 = 899.1009u
 +  9:net0137 = 899.1009u   9:net0155 =   1.2925m   9:net0161 = 505.7442u
 +  9:opin    = 899.1009u   9:opip    = 899.1009u  10:cinn    = 449.7003u
 + 10:cinp    = 449.7003u  10:dacn_0  = 899.1009u  10:dacn_1  = 899.1009u
 + 10:dacn_2  = 899.1009u  10:dacn_3  = 899.1009u  10:dacn_4  = 899.1009u
 + 10:dacn_5  = 899.1009u  10:dacn_6  = 899.1009u  10:dacn_7  = 899.1009u
 + 10:dacp_0  = 899.1009u  10:dacp_1  = 899.1009u  10:dacp_2  = 899.1009u
 + 10:dacp_3  = 899.1009u  10:dacp_4  = 899.1009u  10:dacp_5  = 899.1009u
 + 10:dacp_6  = 899.1009u  10:dacp_7  = 899.1009u  10:opin    = 299.9998u
 + 10:opip    = 299.9998u  10:s_cacn  = 899.1009u  10:s_cinn  = 449.7003u
 + 10:s_cinp  = 449.7003u  10:s_dacp  = 899.1009u  11:cinn    = 449.7003u
 + 11:cinp    = 449.7003u  11:dacn_0  = 899.1009u  11:dacn_1  = 899.1009u
 + 11:dacn_2  = 899.1009u  11:dacn_3  = 899.1009u  11:dacn_4  = 899.1009u
 + 11:dacn_5  = 899.1009u  11:dacn_6  = 899.1009u  11:dacn_7  = 899.1009u
 + 11:dacp_0  = 899.1009u  11:dacp_1  = 899.1009u  11:dacp_2  = 899.1009u
 + 11:dacp_3  = 899.1009u  11:dacp_4  = 899.1009u  11:dacp_5  = 899.1009u
 + 11:dacp_6  = 899.1009u  11:dacp_7  = 899.1009u  11:opin    = 299.9998u
 + 11:opip    = 299.9998u  11:s_cacn  = 899.1009u  11:s_cinn  = 449.7003u
 + 11:s_cinp  = 449.7003u  11:s_dacp  = 899.1009u  12:d_b     =  18.0000f
 + 12:net43   =   1.8000   12:net48   =   1.8000   13:d_b     =  18.0000f
 + 13:net43   =   1.8000   13:net48   =   1.8000   14:d_b     =  18.0000f
 + 14:net43   =   1.8000   14:net48   =   1.8000   15:d_b     =  18.0000f
 + 15:net43   =   1.8000   15:net48   =   1.8000   16:d_b     =  18.0000f
 + 16:net43   =   1.8000   16:net48   =   1.8000   17:d_b     =  18.0000f
 + 17:net43   =   1.8000   17:net48   =   1.8000   18:d_b     =  18.0000f
 + 18:net43   =   1.8000   18:net48   =   1.8000   19:d_b     =  18.0000f
 + 19:net43   =   1.8000   19:net48   =   1.8000   20:cinn    = 449.7003u
 + 20:cinp    = 449.7003u  20:dacn_0  = 899.1009u  20:dacn_1  = 899.1009u
 + 20:dacn_2  = 899.1009u  20:dacn_3  = 899.1009u  20:dacn_4  = 899.1009u
 + 20:dacn_5  = 899.1009u  20:dacn_6  = 899.1009u  20:dacn_7  = 899.1009u
 + 20:dacp_0  = 899.1009u  20:dacp_1  = 899.1009u  20:dacp_2  = 899.1009u
 + 20:dacp_3  = 899.1009u  20:dacp_4  = 899.1009u  20:dacp_5  = 899.1009u
 + 20:dacp_6  = 899.1009u  20:dacp_7  = 899.1009u  20:opin    = 299.9998u
 + 20:opip    = 299.9998u  20:s_cacn  = 899.1009u  20:s_cinn  = 449.7003u
 + 20:s_cinp  = 449.7003u  20:s_dacp  = 899.1009u  21:cinn    = 449.7751u
 + 21:cinp    = 449.7751u  21:dacn_0  = 899.1009u  21:dacn_1  = 899.1009u
 + 21:dacn_2  = 899.1009u  21:dacn_3  = 899.1009u  21:dacn_4  = 899.1009u
 + 21:dacn_5  = 899.1009u  21:dacn_6  = 899.1009u  21:dacn_7  = 899.1009u
 + 21:dacp_0  = 899.1009u  21:dacp_1  = 899.1009u  21:dacp_2  = 899.1009u
 + 21:dacp_3  = 899.1009u  21:dacp_4  = 899.1009u  21:dacp_5  = 899.1009u
 + 21:dacp_6  = 899.1009u  21:dacp_7  = 899.1009u  21:opin    = 449.7751u
 + 21:opip    = 449.7751u  22:on1     =  13.8778f  22:op1     = -13.8778f
 + 22:vcm1    = 900.0000m  23:net22   = 1.800e-27  24:net23   =   1.8000 
 + 35:on1     =   0.       35:op1     =   0.       35:vcm1    = 900.0000m
 + 36:net22   = 1.800e-27  37:net23   =   1.8000   48:on1     =   0.     
 + 48:op1     =   0.       48:vcm1    = 900.0000m  49:net22   = 1.800e-27
 + 50:net23   =   1.8000   61:on1     =   0.       61:op1     =   0.     
 + 61:vcm1    = 900.0000m  62:net22   = 1.800e-27  63:net23   =   1.8000 
 + 74:on1     =   0.       74:op1     =   0.       74:vcm1    = 900.0000m
 + 75:net22   = 1.800e-27  76:net23   =   1.8000   87:on1     =   0.     
 + 87:op1     =   0.       87:vcm1    = 900.0000m  88:net22   = 1.800e-27
 + 89:net23   =   1.8000  100:on1     =   0.      100:op1     =   0.     
 +100:vcm1    = 900.0000m 101:net22   = 1.800e-27 102:net23   =   1.8000 
 +113:on1     =   0.      113:op1     =   0.      113:vcm1    = 900.0000m
 +114:net22   = 1.800e-27 115:net23   =   1.8000  164:vcmi    = 900.0000m
 +203:vcmi    = 900.0000m 204:net23   =   1.8000  205:net23   =  18.0000f
 +206:net23   =  18.0000f 207:net23   =  18.0000f 208:net23   =   1.8000 
 +209:net8    = 899.1009u 210:net8    =   1.8000  211:net23   =   1.8000 
 +212:net23   =  18.0000f 213:net23   =  18.0000f 214:net23   =  18.0000f
 +215:net23   =   1.8000  216:net8    = 899.1009u 217:net8    =   1.8000 
 +218:net23   =   1.8000  219:net23   =  18.0000f 220:net23   =  18.0000f
 +221:net23   =  18.0000f 222:net23   =   1.8000  223:net8    = 899.1009u
 +224:net8    =   1.8000  225:net23   =   1.8000  226:net23   =  18.0000f
 +227:net23   =  18.0000f 228:net23   =  18.0000f 229:net23   =   1.8000 
 +230:net8    = 899.1009u 231:net8    =   1.8000  232:net23   =   1.8000 
 +233:net23   =  18.0000f 234:net23   =  18.0000f 235:net23   =  18.0000f
 +236:net23   =   1.8000  237:net8    = 899.1009u 238:net8    =   1.8000 
 +239:net23   =   1.8000  240:net23   =  18.0000f 241:net23   =  18.0000f
 +242:net23   =  18.0000f 243:net23   =   1.8000  244:net8    = 899.1009u
 +245:net8    =   1.8000  246:net23   =   1.8000  247:net23   =  18.0000f
 +248:net23   =  18.0000f 249:net23   =  18.0000f 250:net23   =   1.8000 
 +251:net8    = 899.1009u 252:net8    =   1.8000  253:net23   =   1.8000 
 +254:net23   =  18.0000f 255:net23   =  18.0000f 256:net23   =  18.0000f
 +257:net23   =   1.8000  258:net8    = 899.1009u 259:net8    =   1.8000 
 +298:vcmi    = 900.0000m 329:vcmi    = 900.0000m 330:net275  =  18.0000f
 +331:vout1   =   0.      334:net275  =  18.0000f 335:vout1   =   0.     
 +338:net275  =  18.0000f 339:vout1   =   0.      342:net275  =  18.0000f
 +343:vout1   =   0.      346:net275  =  18.0000f 347:vout1   =   0.     
 +350:net275  =  18.0000f 351:vout1   =   0.      354:net275  =  18.0000f
 +355:vout1   =   0.      358:net275  =  18.0000f 359:vout1   =   0.     
 +634:net017  =   1.8000  634:net22   =  18.0000f 634:net8    =   1.8000 
 +635:net017  =   1.8000  635:net22   =  18.0000f 635:net8    =   1.8000 
 +636:net017  =   1.8000  636:net22   =  18.0000f 636:net8    =   1.8000 
 +637:net017  =   1.8000  637:net22   =  18.0000f 637:net8    =   1.8000 
 +638:net017  =   1.8000  638:net22   =  18.0000f 638:net8    =   1.8000 
 +639:net017  =   1.8000  639:net22   =  18.0000f 639:net8    =   1.8000 
 +640:net017  =   1.8000  640:net22   =  18.0000f 640:net8    =   1.8000 
 +641:net017  =   1.8000  641:net22   =  18.0000f 641:net8    =   1.8000 
 +642:net017  =   1.8000  642:net22   =  18.0000f 642:net8    =   1.8000 
 +643:net017  =   1.8000  643:net22   =  18.0000f 643:net8    =   1.8000 
 +644:net017  =   1.8000  644:net22   =  18.0000f 644:net8    =   1.8000 
 +645:net017  =   1.8000  645:net22   =  18.0000f 645:net8    =   1.8000 
 +646:net017  =   1.8000  646:net22   =  18.0000f 646:net8    =   1.8000 
 +647:net017  =   1.8000  647:net22   =  18.0000f 647:net8    =   1.8000 
 +648:net017  =   1.8000  648:net22   =  18.0000f 648:net8    =   1.8000 
 +649:net017  =   1.8000  649:net22   =  18.0000f 649:net8    =   1.8000 
 +650:net23   =  18.0000f 651:net23   =   1.8000  654:net23   =  18.0000f
 +655:net23   =   1.8000  658:net23   =  18.0000f 659:net23   =   1.8000 
 +662:net23   =  18.0000f 663:net23   =   1.8000  666:net23   =  18.0000f
 +667:net23   =   1.8000  670:net23   =  18.0000f 671:net23   =   1.8000 
 +674:net23   =  18.0000f 675:net23   =   1.8000  678:net23   =  18.0000f
 +679:net23   =   1.8000  682:net23   =  18.0000f 683:net23   =   1.8000 
 +686:net23   =  18.0000f 687:net23   =   1.8000  690:net23   =  18.0000f
 +691:net23   =   1.8000  694:net23   =  18.0000f 695:net23   =   1.8000 
 +698:net23   =  18.0000f 699:net23   =   1.8000  702:net23   =  18.0000f
 +703:net23   =   1.8000  706:net23   =  18.0000f 707:net23   =   1.8000 
 +710:net23   =  18.0000f 711:net23   =   1.8000 


          ***** job concluded
 ******  
 *behavior simulation

 ****** job statistics summary tnom=  25.000 temp=  27.000 ******
  
 ******  Machine Information  ******
 CPU:
 model name	: Intel(R) Xeon(R) Silver 4110 CPU @ 2.10GHz
 cpu MHz	: 2100.000
  
 OS:
 Linux version 3.10.0-957.el7.x86_64 (mockbuild@kbuilder.bsys.centos.org) (gcc version 4.8.5 20150623 (Red Hat 4.8.5-36) (GCC) ) #1 SMP Thu Nov 8 23:39:32 UTC 2018


  ******  HSPICE Threads Information  ******

  Command Line Threads Count :     1
  Available CPU Count        :    32
  Actual Threads Count       :     1


  ******  Circuit Statistics  ******
  # nodes       =     474 # elements   =    2896
  # resistors   =    1330 # capacitors =     910 # inductors   =       0
  # mutual_inds =       0 # vccs       =     592 # vcvs        =      45
  # cccs        =       0 # ccvs       =       0 # volt_srcs   =      19
  # curr_srcs   =       0 # diodes     =       0 # bjts        =       0
  # jfets       =       0 # mosfets    =       0 # U elements  =       0
  # T elements  =       0 # W elements =       0 # B elements  =       0
  # S elements  =       0 # P elements =       0 # va device   =       0
  # vector_srcs =       0 # N elements =       0


  ******  Runtime Statistics (seconds)  ******

  analysis           time    # points   tot. iter  conv.iter
  op point           0.02           1           8
  transient       5863.53       12801    22569121     6130197 rev=    619066
  readin             0.03
  errchk             0.04
  setup              0.01
  output             0.00


           peak memory used        325.76 megabytes
           total cpu time         5863.62 seconds
           total elapsed time     5908.09 seconds
           job started at     17:02:19 07/18/2019
           job ended   at     18:40:47 07/18/2019



>info:         ***** hspice job concluded
 lic: Release hspice token(s) 
 lic: total license checkout elapse time:        0.29(s)
