Using: /usr/cad/synopsys/hspice/cur/hspice/linux64/hspice bhv2.sp
 ****** HSPICE -- O-2018.09 linux64 (Aug 26 2018) ******                        
  Copyright (c) 1986 - 2019 by Synopsys, Inc. All Rights Reserved.              
  This software and the associated documentation are proprietary
  to Synopsys, Inc. This software may only be used in accordance
  with the terms and conditions of a written license agreement with
  Synopsys, Inc. All other use, reproduction, or distribution of
  this software is strictly prohibited.
  Input File: bhv2.sp                                                           
  Command line options: /usr/cad/synopsys/hspice/cur/hspice/linux64/hspice bhv2.sp
 lic:  
 lic: FLEXlm: SDK_11.6.9.6 
 lic: USER:   ychuang              HOSTNAME: adc 
 lic: HOSTID: "b026281535a3"       PID:      221593 
 lic: Using FLEXlm license file: 
 lic: 26585@lsnctu 
 lic: Checkout 1 hspice 
 lic: License/Maintenance for hspice will expire on 14-may-2022/2018.09 
 lic: 54(in_use)/190(total) FLOATING license(s) on SERVER 26585@lsnctu 
 lic:   
  **warning** (bhv2.sp:113) Unrecognized output type for xsar.v in .print or .probe; The line is ignored.
1****** HSPICE -- O-2018.09 linux64 (Aug 26 2018) ******                        
 ******  
 *behavior simulation

 ****** circuit name directory
 circuit number to circuit name directory
   number circuitname                     definition         multiplier
        0 main circuit
        1 xds.                            adc_mod2_lev5_ff_v2_8bit_sar_in
                                                                 1.00 
        2 xsar.                           adc_sar_diff_8bit_v4_monotonic
                                                                 1.00 
        3 xds.xint1.                      int1_with_lev5_dac_v2_8bit_sar_in
                                                                 1.00 
        4 xds.xint2.                      int2               1.00 
        5 xds.xquantizer_1b_0.            adder_cmp_1b_ciff2
                                                                 1.00 
        6 xds.xquantizer_1b_1.            adder_cmp_1b_ciff2
                                                                 1.00 
        7 xds.xquantizer_1b_2.            adder_cmp_1b_ciff2
                                                                 1.00 
        8 xds.xquantizer_1b_3.            adder_cmp_1b_ciff2
                                                                 1.00 
        9 xds.xvth.                       vth_5lev           1.00 
       10 xds.xclk_fb_0.                  clk_fb_1bit        1.00 
       11 xds.xclk_fb_1.                  clk_fb_1bit        1.00 
       12 xds.xclk_fb_2.                  clk_fb_1bit        1.00 
       13 xds.xclk_fb_3.                  clk_fb_1bit        1.00 
       14 xsar.xcmp.                      vcvs_cmp           1.00 
       15 xsar.xc_array_p.                sa_8bit_c_array_with_dac_monotonic
                                                                 1.00 
       16 xsar.xc_array_n.                sa_8bit_c_array_with_dac_monotonic
                                                                 1.00 
       17 xsar.xsa_logic.                 sa_logic_8bit_monotonic
                                                                 1.00 
       18 xsar.xdffout_7.                 dff_set_rst_schematic
                                                                 1.00 
       19 xsar.xdffout_6.                 dff_set_rst_schematic
                                                                 1.00 
       20 xsar.xdffout_5.                 dff_set_rst_schematic
                                                                 1.00 
       21 xsar.xdffout_4.                 dff_set_rst_schematic
                                                                 1.00 
       22 xsar.xdffout_3.                 dff_set_rst_schematic
                                                                 1.00 
       23 xsar.xdffout_2.                 dff_set_rst_schematic
                                                                 1.00 
       24 xsar.xdffout_1.                 dff_set_rst_schematic
                                                                 1.00 
       25 xsar.xdffout_0.                 dff_set_rst_schematic
                                                                 1.00 
       26 xsar.xi7.                       nand2_bhv          1.00 
       27 xsar.xi28.                      inv_bhv            1.00 
       28 xsar.xi6.                       inv_bhv            1.00 
       29 xsar.xi5.                       inv_bhv            1.00 
       30 xds.xint1.xcarrayp.             carray_8bit_sar_in
                                                                 1.00 
       31 xds.xint1.xcarrayn.             carray_8bit_sar_in
                                                                 1.00 
       32 xds.xint1.xdac_0.               dac_int_1bit       1.00 
       33 xds.xint1.xdac_1.               dac_int_1bit       1.00 
       34 xds.xint1.xdac_2.               dac_int_1bit       1.00 
       35 xds.xint1.xdac_3.               dac_int_1bit       1.00 
       36 xds.xint1.xsw3.                 tgb                1.00 
       37 xds.xint1.xsw7.                 tgb                1.00 
       38 xds.xint1.xsw4_0.               tgb                1.00 
       39 xds.xint1.xsw4_1.               tgb                1.00 
       40 xds.xint1.xsw4_2.               tgb                1.00 
       41 xds.xint1.xsw4_3.               tgb                1.00 
       42 xds.xint1.xsw4_4.               tgb                1.00 
       43 xds.xint1.xsw4_5.               tgb                1.00 
       44 xds.xint1.xsw4_6.               tgb                1.00 
       45 xds.xint1.xsw4_7.               tgb                1.00 
       46 xds.xint1.xsw_sar_inp_0.        tgb                1.00 
       47 xds.xint1.xsw_sar_inp_1.        tgb                1.00 
       48 xds.xint1.xsw_sar_inp_2.        tgb                1.00 
       49 xds.xint1.xsw_sar_inp_3.        tgb                1.00 
       50 xds.xint1.xsw_sar_inp_4.        tgb                1.00 
       51 xds.xint1.xsw_sar_inp_5.        tgb                1.00 
       52 xds.xint1.xsw_sar_inp_6.        tgb                1.00 
       53 xds.xint1.xsw_sar_inp_7.        tgb                1.00 
       54 xds.xint1.xsw_sar_inn_0.        tgb                1.00 
       55 xds.xint1.xsw_sar_inn_1.        tgb                1.00 
       56 xds.xint1.xsw_sar_inn_2.        tgb                1.00 
       57 xds.xint1.xsw_sar_inn_3.        tgb                1.00 
       58 xds.xint1.xsw_sar_inn_4.        tgb                1.00 
       59 xds.xint1.xsw_sar_inn_5.        tgb                1.00 
       60 xds.xint1.xsw_sar_inn_6.        tgb                1.00 
       61 xds.xint1.xsw_sar_inn_7.        tgb                1.00 
       62 xds.xint1.xswinn_0.             tgb                1.00 
       63 xds.xint1.xswinn_1.             tgb                1.00 
       64 xds.xint1.xswinn_2.             tgb                1.00 
       65 xds.xint1.xswinn_3.             tgb                1.00 
       66 xds.xint1.xsw5_0.               tgb                1.00 
       67 xds.xint1.xsw5_1.               tgb                1.00 
       68 xds.xint1.xsw5_2.               tgb                1.00 
       69 xds.xint1.xsw5_3.               tgb                1.00 
       70 xds.xint1.xsw5_4.               tgb                1.00 
       71 xds.xint1.xsw5_5.               tgb                1.00 
       72 xds.xint1.xsw5_6.               tgb                1.00 
       73 xds.xint1.xsw5_7.               tgb                1.00 
       74 xds.xint1.xsw2.                 tgb                1.00 
       75 xds.xint1.xsw6.                 tgb                1.00 
       76 xds.xint1.xi12.                 tgb                1.00 
       77 xds.xint1.xi13.                 tgb                1.00 
       78 xds.xint1.xswinp_0.             tgb                1.00 
       79 xds.xint1.xswinp_1.             tgb                1.00 
       80 xds.xint1.xswinp_2.             tgb                1.00 
       81 xds.xint1.xswinp_3.             tgb                1.00 
       82 xds.xint1.xop.                  fdopb              1.00 
       83 xds.xint2.xi65.                 tgb                1.00 
       84 xds.xint2.xsw7.                 tgb                1.00 
       85 xds.xint2.xsw3.                 tgb                1.00 
       86 xds.xint2.xswinn_0.             tgb                1.00 
       87 xds.xint2.xswinn_1.             tgb                1.00 
       88 xds.xint2.xswinn_2.             tgb                1.00 
       89 xds.xint2.xswinn_3.             tgb                1.00 
       90 xds.xint2.xswinp_0.             tgb                1.00 
       91 xds.xint2.xswinp_1.             tgb                1.00 
       92 xds.xint2.xswinp_2.             tgb                1.00 
       93 xds.xint2.xswinp_3.             tgb                1.00 
       94 xds.xint2.xsw2.                 tgb                1.00 
       95 xds.xint2.xsw6.                 tgb                1.00 
       96 xds.xint2.xi6.                  tgb                1.00 
       97 xds.xint2.xi9.                  tgb                1.00 
       98 xds.xint2.xi66.                 tgb                1.00 
       99 xds.xint2.xop.                  fdopb              1.00 
      100 xds.xquantizer_1b_0.xpreamp_bhv.
                                            preamp_cmp_b       1.00 
      101 xds.xquantizer_1b_0.xcmp3.      cmp_clk            1.00 
      102 xds.xquantizer_1b_0.xi1.        inv_bhv            1.00 
      103 xds.xquantizer_1b_0.xi52.       tgb                1.00 
      104 xds.xquantizer_1b_0.xi63.       tgb                1.00 
      105 xds.xquantizer_1b_0.xi62.       tgb                1.00 
      106 xds.xquantizer_1b_0.xi55.       tgb                1.00 
      107 xds.xquantizer_1b_0.xi56.       tgb                1.00 
      108 xds.xquantizer_1b_0.xi65.       tgb                1.00 
      109 xds.xquantizer_1b_0.xi64.       tgb                1.00 
      110 xds.xquantizer_1b_0.xi60.       tgb                1.00 
      111 xds.xquantizer_1b_0.xi59.       tgb                1.00 
      112 xds.xquantizer_1b_0.xi13.       tgb                1.00 
      113 xds.xquantizer_1b_0.xi9.        tgb                1.00 
      114 xds.xquantizer_1b_0.xsw1.       tgb                1.00 
      115 xds.xquantizer_1b_0.xi2.        tgb                1.00 
      116 xds.xquantizer_1b_0.xsw4.       tgb                1.00 
      117 xds.xquantizer_1b_1.xpreamp_bhv.
                                            preamp_cmp_b       1.00 
      118 xds.xquantizer_1b_1.xcmp3.      cmp_clk            1.00 
      119 xds.xquantizer_1b_1.xi1.        inv_bhv            1.00 
      120 xds.xquantizer_1b_1.xi52.       tgb                1.00 
      121 xds.xquantizer_1b_1.xi63.       tgb                1.00 
      122 xds.xquantizer_1b_1.xi62.       tgb                1.00 
      123 xds.xquantizer_1b_1.xi55.       tgb                1.00 
      124 xds.xquantizer_1b_1.xi56.       tgb                1.00 
      125 xds.xquantizer_1b_1.xi65.       tgb                1.00 
      126 xds.xquantizer_1b_1.xi64.       tgb                1.00 
      127 xds.xquantizer_1b_1.xi60.       tgb                1.00 
      128 xds.xquantizer_1b_1.xi59.       tgb                1.00 
      129 xds.xquantizer_1b_1.xi13.       tgb                1.00 
      130 xds.xquantizer_1b_1.xi9.        tgb                1.00 
      131 xds.xquantizer_1b_1.xsw1.       tgb                1.00 
      132 xds.xquantizer_1b_1.xi2.        tgb                1.00 
      133 xds.xquantizer_1b_1.xsw4.       tgb                1.00 
      134 xds.xquantizer_1b_2.xpreamp_bhv.
                                            preamp_cmp_b       1.00 
      135 xds.xquantizer_1b_2.xcmp3.      cmp_clk            1.00 
      136 xds.xquantizer_1b_2.xi1.        inv_bhv            1.00 
      137 xds.xquantizer_1b_2.xi52.       tgb                1.00 
      138 xds.xquantizer_1b_2.xi63.       tgb                1.00 
      139 xds.xquantizer_1b_2.xi62.       tgb                1.00 
      140 xds.xquantizer_1b_2.xi55.       tgb                1.00 
      141 xds.xquantizer_1b_2.xi56.       tgb                1.00 
      142 xds.xquantizer_1b_2.xi65.       tgb                1.00 
      143 xds.xquantizer_1b_2.xi64.       tgb                1.00 
      144 xds.xquantizer_1b_2.xi60.       tgb                1.00 
      145 xds.xquantizer_1b_2.xi59.       tgb                1.00 
      146 xds.xquantizer_1b_2.xi13.       tgb                1.00 
      147 xds.xquantizer_1b_2.xi9.        tgb                1.00 
      148 xds.xquantizer_1b_2.xsw1.       tgb                1.00 
      149 xds.xquantizer_1b_2.xi2.        tgb                1.00 
      150 xds.xquantizer_1b_2.xsw4.       tgb                1.00 
      151 xds.xquantizer_1b_3.xpreamp_bhv.
                                            preamp_cmp_b       1.00 
      152 xds.xquantizer_1b_3.xcmp3.      cmp_clk            1.00 
      153 xds.xquantizer_1b_3.xi1.        inv_bhv            1.00 
      154 xds.xquantizer_1b_3.xi52.       tgb                1.00 
      155 xds.xquantizer_1b_3.xi63.       tgb                1.00 
      156 xds.xquantizer_1b_3.xi62.       tgb                1.00 
      157 xds.xquantizer_1b_3.xi55.       tgb                1.00 
      158 xds.xquantizer_1b_3.xi56.       tgb                1.00 
      159 xds.xquantizer_1b_3.xi65.       tgb                1.00 
      160 xds.xquantizer_1b_3.xi64.       tgb                1.00 
      161 xds.xquantizer_1b_3.xi60.       tgb                1.00 
      162 xds.xquantizer_1b_3.xi59.       tgb                1.00 
      163 xds.xquantizer_1b_3.xi13.       tgb                1.00 
      164 xds.xquantizer_1b_3.xi9.        tgb                1.00 
      165 xds.xquantizer_1b_3.xsw1.       tgb                1.00 
      166 xds.xquantizer_1b_3.xi2.        tgb                1.00 
      167 xds.xquantizer_1b_3.xsw4.       tgb                1.00 
      168 xds.xclk_fb_0.xi64.             inv_bhv            1.00 
      169 xds.xclk_fb_0.xi20.             inv_bhv            1.00 
      170 xds.xclk_fb_0.xi60.             inv_bhv            1.00 
      171 xds.xclk_fb_0.xi59.             inv_bhv            1.00 
      172 xds.xclk_fb_0.xi63.             inv_bhv            1.00 
      173 xds.xclk_fb_0.xi62.             nand2_bhv          1.00 
      174 xds.xclk_fb_0.xi19.             nand2_bhv          1.00 
      175 xds.xclk_fb_1.xi64.             inv_bhv            1.00 
      176 xds.xclk_fb_1.xi20.             inv_bhv            1.00 
      177 xds.xclk_fb_1.xi60.             inv_bhv            1.00 
      178 xds.xclk_fb_1.xi59.             inv_bhv            1.00 
      179 xds.xclk_fb_1.xi63.             inv_bhv            1.00 
      180 xds.xclk_fb_1.xi62.             nand2_bhv          1.00 
      181 xds.xclk_fb_1.xi19.             nand2_bhv          1.00 
      182 xds.xclk_fb_2.xi64.             inv_bhv            1.00 
      183 xds.xclk_fb_2.xi20.             inv_bhv            1.00 
      184 xds.xclk_fb_2.xi60.             inv_bhv            1.00 
      185 xds.xclk_fb_2.xi59.             inv_bhv            1.00 
      186 xds.xclk_fb_2.xi63.             inv_bhv            1.00 
      187 xds.xclk_fb_2.xi62.             nand2_bhv          1.00 
      188 xds.xclk_fb_2.xi19.             nand2_bhv          1.00 
      189 xds.xclk_fb_3.xi64.             inv_bhv            1.00 
      190 xds.xclk_fb_3.xi20.             inv_bhv            1.00 
      191 xds.xclk_fb_3.xi60.             inv_bhv            1.00 
      192 xds.xclk_fb_3.xi59.             inv_bhv            1.00 
      193 xds.xclk_fb_3.xi63.             inv_bhv            1.00 
      194 xds.xclk_fb_3.xi62.             nand2_bhv          1.00 
      195 xds.xclk_fb_3.xi19.             nand2_bhv          1.00 
      196 xsar.xc_array_p.xsa_dac.        sa_dac_8bit        1.00 
      197 xsar.xc_array_p.xswvcmp.        tgb                1.00 
      198 xsar.xc_array_n.xsa_dac.        sa_dac_8bit        1.00 
      199 xsar.xc_array_n.xswvcmp.        tgb                1.00 
      200 xsar.xsa_logic.xi36.            inv_bhv            1.00 
      201 xsar.xsa_logic.xi19.            nor2_bhv           1.00 
      202 xsar.xsa_logic.xi23.            nor2_bhv           1.00 
      203 xsar.xsa_logic.xi22.            nor2_bhv           1.00 
      204 xsar.xsa_logic.xi26.            nor2_bhv           1.00 
      205 xsar.xsa_logic.xi27.            nor2_bhv           1.00 
      206 xsar.xsa_logic.xi29.            nor2_bhv           1.00 
      207 xsar.xsa_logic.xi32.            nor2_bhv           1.00 
      208 xsar.xsa_logic.xi33.            nor2_bhv           1.00 
      209 xsar.xsa_logic.xi24.            nand2_bhv          1.00 
      210 xsar.xsa_logic.xi20.            nand2_bhv          1.00 
      211 xsar.xsa_logic.xi21.            nand2_bhv          1.00 
      212 xsar.xsa_logic.xi25.            nand2_bhv          1.00 
      213 xsar.xsa_logic.xi28.            nand2_bhv          1.00 
      214 xsar.xsa_logic.xi30.            nand2_bhv          1.00 
      215 xsar.xsa_logic.xi31.            nand2_bhv          1.00 
      216 xsar.xsa_logic.xi34.            nand2_bhv          1.00 
      217 xsar.xsa_logic.xdata3.          dff_set_rst        1.00 
      218 xsar.xsa_logic.xdata2.          dff_set_rst        1.00 
      219 xsar.xsa_logic.xdata1.          dff_set_rst        1.00 
      220 xsar.xsa_logic.xdata0.          dff_set_rst        1.00 
      221 xsar.xsa_logic.xdata5.          dff_set_rst        1.00 
      222 xsar.xsa_logic.xrsh0.           dff_set_rst        1.00 
      223 xsar.xsa_logic.xrsh3.           dff_set_rst        1.00 
      224 xsar.xsa_logic.xrsh2.           dff_set_rst        1.00 
      225 xsar.xsa_logic.xrsh1.           dff_set_rst        1.00 
      226 xsar.xsa_logic.xrsh4.           dff_set_rst        1.00 
      227 xsar.xsa_logic.xdata7.          dff_set_rst        1.00 
      228 xsar.xsa_logic.xrsh5.           dff_set_rst        1.00 
      229 xsar.xsa_logic.xdata6.          dff_set_rst        1.00 
      230 xsar.xsa_logic.xdata4.          dff_set_rst        1.00 
      231 xsar.xsa_logic.xrsh6.           dff_set_rst        1.00 
      232 xsar.xsa_logic.xrsh7.           dff_set_rst        1.00 
      233 xsar.xdffout_7.xi1.             inv_bhv            1.00 
      234 xsar.xdffout_7.xi40.            tgb                1.00 
      235 xsar.xdffout_7.xi34.            tgb                1.00 
      236 xsar.xdffout_7.xi41.            tgb                1.00 
      237 xsar.xdffout_7.xsw1.            tgb                1.00 
      238 xsar.xdffout_7.xi42.            nor2_bhv           1.00 
      239 xsar.xdffout_7.xi43.            nor2_bhv           1.00 
      240 xsar.xdffout_7.xi31.            nor2_bhv           1.00 
      241 xsar.xdffout_7.xi37.            nor2_bhv           1.00 
      242 xsar.xdffout_6.xi1.             inv_bhv            1.00 
      243 xsar.xdffout_6.xi40.            tgb                1.00 
      244 xsar.xdffout_6.xi34.            tgb                1.00 
      245 xsar.xdffout_6.xi41.            tgb                1.00 
      246 xsar.xdffout_6.xsw1.            tgb                1.00 
      247 xsar.xdffout_6.xi42.            nor2_bhv           1.00 
      248 xsar.xdffout_6.xi43.            nor2_bhv           1.00 
      249 xsar.xdffout_6.xi31.            nor2_bhv           1.00 
      250 xsar.xdffout_6.xi37.            nor2_bhv           1.00 
      251 xsar.xdffout_5.xi1.             inv_bhv            1.00 
      252 xsar.xdffout_5.xi40.            tgb                1.00 
      253 xsar.xdffout_5.xi34.            tgb                1.00 
      254 xsar.xdffout_5.xi41.            tgb                1.00 
      255 xsar.xdffout_5.xsw1.            tgb                1.00 
      256 xsar.xdffout_5.xi42.            nor2_bhv           1.00 
      257 xsar.xdffout_5.xi43.            nor2_bhv           1.00 
      258 xsar.xdffout_5.xi31.            nor2_bhv           1.00 
      259 xsar.xdffout_5.xi37.            nor2_bhv           1.00 
      260 xsar.xdffout_4.xi1.             inv_bhv            1.00 
      261 xsar.xdffout_4.xi40.            tgb                1.00 
      262 xsar.xdffout_4.xi34.            tgb                1.00 
      263 xsar.xdffout_4.xi41.            tgb                1.00 
      264 xsar.xdffout_4.xsw1.            tgb                1.00 
      265 xsar.xdffout_4.xi42.            nor2_bhv           1.00 
      266 xsar.xdffout_4.xi43.            nor2_bhv           1.00 
      267 xsar.xdffout_4.xi31.            nor2_bhv           1.00 
      268 xsar.xdffout_4.xi37.            nor2_bhv           1.00 
      269 xsar.xdffout_3.xi1.             inv_bhv            1.00 
      270 xsar.xdffout_3.xi40.            tgb                1.00 
      271 xsar.xdffout_3.xi34.            tgb                1.00 
      272 xsar.xdffout_3.xi41.            tgb                1.00 
      273 xsar.xdffout_3.xsw1.            tgb                1.00 
      274 xsar.xdffout_3.xi42.            nor2_bhv           1.00 
      275 xsar.xdffout_3.xi43.            nor2_bhv           1.00 
      276 xsar.xdffout_3.xi31.            nor2_bhv           1.00 
      277 xsar.xdffout_3.xi37.            nor2_bhv           1.00 
      278 xsar.xdffout_2.xi1.             inv_bhv            1.00 
      279 xsar.xdffout_2.xi40.            tgb                1.00 
      280 xsar.xdffout_2.xi34.            tgb                1.00 
      281 xsar.xdffout_2.xi41.            tgb                1.00 
      282 xsar.xdffout_2.xsw1.            tgb                1.00 
      283 xsar.xdffout_2.xi42.            nor2_bhv           1.00 
      284 xsar.xdffout_2.xi43.            nor2_bhv           1.00 
      285 xsar.xdffout_2.xi31.            nor2_bhv           1.00 
      286 xsar.xdffout_2.xi37.            nor2_bhv           1.00 
      287 xsar.xdffout_1.xi1.             inv_bhv            1.00 
      288 xsar.xdffout_1.xi40.            tgb                1.00 
      289 xsar.xdffout_1.xi34.            tgb                1.00 
      290 xsar.xdffout_1.xi41.            tgb                1.00 
      291 xsar.xdffout_1.xsw1.            tgb                1.00 
      292 xsar.xdffout_1.xi42.            nor2_bhv           1.00 
      293 xsar.xdffout_1.xi43.            nor2_bhv           1.00 
      294 xsar.xdffout_1.xi31.            nor2_bhv           1.00 
      295 xsar.xdffout_1.xi37.            nor2_bhv           1.00 
      296 xsar.xdffout_0.xi1.             inv_bhv            1.00 
      297 xsar.xdffout_0.xi40.            tgb                1.00 
      298 xsar.xdffout_0.xi34.            tgb                1.00 
      299 xsar.xdffout_0.xi41.            tgb                1.00 
      300 xsar.xdffout_0.xsw1.            tgb                1.00 
      301 xsar.xdffout_0.xi42.            nor2_bhv           1.00 
      302 xsar.xdffout_0.xi43.            nor2_bhv           1.00 
      303 xsar.xdffout_0.xi31.            nor2_bhv           1.00 
      304 xsar.xdffout_0.xi37.            nor2_bhv           1.00 
      305 xsar.xi7.xn1.                   nmos_b             1.00 
      306 xsar.xi7.xi9.                   nmos_b             1.00 
      307 xsar.xi7.xp1.                   pmos_b             1.00 
      308 xsar.xi7.xi10.                  pmos_b             1.00 
      309 xsar.xi28.xp1.                  pmos_b             1.00 
      310 xsar.xi28.xn1.                  nmos_b             1.00 
      311 xsar.xi6.xp1.                   pmos_b             1.00 
      312 xsar.xi6.xn1.                   nmos_b             1.00 
      313 xsar.xi5.xp1.                   pmos_b             1.00 
      314 xsar.xi5.xn1.                   nmos_b             1.00 
      315 xds.xint1.xdac_0.xi6.           tgb                1.00 
      316 xds.xint1.xdac_0.xi7.           tgb                1.00 
      317 xds.xint1.xdac_0.xi40.          tgb                1.00 
      318 xds.xint1.xdac_0.xi41.          tgb                1.00 
      319 xds.xint1.xdac_1.xi6.           tgb                1.00 
      320 xds.xint1.xdac_1.xi7.           tgb                1.00 
      321 xds.xint1.xdac_1.xi40.          tgb                1.00 
      322 xds.xint1.xdac_1.xi41.          tgb                1.00 
      323 xds.xint1.xdac_2.xi6.           tgb                1.00 
      324 xds.xint1.xdac_2.xi7.           tgb                1.00 
      325 xds.xint1.xdac_2.xi40.          tgb                1.00 
      326 xds.xint1.xdac_2.xi41.          tgb                1.00 
      327 xds.xint1.xdac_3.xi6.           tgb                1.00 
      328 xds.xint1.xdac_3.xi7.           tgb                1.00 
      329 xds.xint1.xdac_3.xi40.          tgb                1.00 
      330 xds.xint1.xdac_3.xi41.          tgb                1.00 
      331 xds.xquantizer_1b_0.xcmp3.xdff. dff                1.00 
      332 xds.xquantizer_1b_0.xcmp3.xpreamp.
                                            amp_cmp            1.00 
      333 xds.xquantizer_1b_0.xi1.xp1.    pmos_b             1.00 
      334 xds.xquantizer_1b_0.xi1.xn1.    nmos_b             1.00 
      335 xds.xquantizer_1b_1.xcmp3.xdff. dff                1.00 
      336 xds.xquantizer_1b_1.xcmp3.xpreamp.
                                            amp_cmp            1.00 
      337 xds.xquantizer_1b_1.xi1.xp1.    pmos_b             1.00 
      338 xds.xquantizer_1b_1.xi1.xn1.    nmos_b             1.00 
      339 xds.xquantizer_1b_2.xcmp3.xdff. dff                1.00 
      340 xds.xquantizer_1b_2.xcmp3.xpreamp.
                                            amp_cmp            1.00 
      341 xds.xquantizer_1b_2.xi1.xp1.    pmos_b             1.00 
      342 xds.xquantizer_1b_2.xi1.xn1.    nmos_b             1.00 
      343 xds.xquantizer_1b_3.xcmp3.xdff. dff                1.00 
      344 xds.xquantizer_1b_3.xcmp3.xpreamp.
                                            amp_cmp            1.00 
      345 xds.xquantizer_1b_3.xi1.xp1.    pmos_b             1.00 
      346 xds.xquantizer_1b_3.xi1.xn1.    nmos_b             1.00 
      347 xds.xclk_fb_0.xi64.xp1.         pmos_b             1.00 
      348 xds.xclk_fb_0.xi64.xn1.         nmos_b             1.00 
      349 xds.xclk_fb_0.xi20.xp1.         pmos_b             1.00 
      350 xds.xclk_fb_0.xi20.xn1.         nmos_b             1.00 
      351 xds.xclk_fb_0.xi60.xp1.         pmos_b             1.00 
      352 xds.xclk_fb_0.xi60.xn1.         nmos_b             1.00 
      353 xds.xclk_fb_0.xi59.xp1.         pmos_b             1.00 
      354 xds.xclk_fb_0.xi59.xn1.         nmos_b             1.00 
      355 xds.xclk_fb_0.xi63.xp1.         pmos_b             1.00 
      356 xds.xclk_fb_0.xi63.xn1.         nmos_b             1.00 
      357 xds.xclk_fb_0.xi62.xn1.         nmos_b             1.00 
      358 xds.xclk_fb_0.xi62.xi9.         nmos_b             1.00 
      359 xds.xclk_fb_0.xi62.xp1.         pmos_b             1.00 
      360 xds.xclk_fb_0.xi62.xi10.        pmos_b             1.00 
      361 xds.xclk_fb_0.xi19.xn1.         nmos_b             1.00 
      362 xds.xclk_fb_0.xi19.xi9.         nmos_b             1.00 
      363 xds.xclk_fb_0.xi19.xp1.         pmos_b             1.00 
      364 xds.xclk_fb_0.xi19.xi10.        pmos_b             1.00 
      365 xds.xclk_fb_1.xi64.xp1.         pmos_b             1.00 
      366 xds.xclk_fb_1.xi64.xn1.         nmos_b             1.00 
      367 xds.xclk_fb_1.xi20.xp1.         pmos_b             1.00 
      368 xds.xclk_fb_1.xi20.xn1.         nmos_b             1.00 
      369 xds.xclk_fb_1.xi60.xp1.         pmos_b             1.00 
      370 xds.xclk_fb_1.xi60.xn1.         nmos_b             1.00 
      371 xds.xclk_fb_1.xi59.xp1.         pmos_b             1.00 
      372 xds.xclk_fb_1.xi59.xn1.         nmos_b             1.00 
      373 xds.xclk_fb_1.xi63.xp1.         pmos_b             1.00 
      374 xds.xclk_fb_1.xi63.xn1.         nmos_b             1.00 
      375 xds.xclk_fb_1.xi62.xn1.         nmos_b             1.00 
      376 xds.xclk_fb_1.xi62.xi9.         nmos_b             1.00 
      377 xds.xclk_fb_1.xi62.xp1.         pmos_b             1.00 
      378 xds.xclk_fb_1.xi62.xi10.        pmos_b             1.00 
      379 xds.xclk_fb_1.xi19.xn1.         nmos_b             1.00 
      380 xds.xclk_fb_1.xi19.xi9.         nmos_b             1.00 
      381 xds.xclk_fb_1.xi19.xp1.         pmos_b             1.00 
      382 xds.xclk_fb_1.xi19.xi10.        pmos_b             1.00 
      383 xds.xclk_fb_2.xi64.xp1.         pmos_b             1.00 
      384 xds.xclk_fb_2.xi64.xn1.         nmos_b             1.00 
      385 xds.xclk_fb_2.xi20.xp1.         pmos_b             1.00 
      386 xds.xclk_fb_2.xi20.xn1.         nmos_b             1.00 
      387 xds.xclk_fb_2.xi60.xp1.         pmos_b             1.00 
      388 xds.xclk_fb_2.xi60.xn1.         nmos_b             1.00 
      389 xds.xclk_fb_2.xi59.xp1.         pmos_b             1.00 
      390 xds.xclk_fb_2.xi59.xn1.         nmos_b             1.00 
      391 xds.xclk_fb_2.xi63.xp1.         pmos_b             1.00 
      392 xds.xclk_fb_2.xi63.xn1.         nmos_b             1.00 
      393 xds.xclk_fb_2.xi62.xn1.         nmos_b             1.00 
      394 xds.xclk_fb_2.xi62.xi9.         nmos_b             1.00 
      395 xds.xclk_fb_2.xi62.xp1.         pmos_b             1.00 
      396 xds.xclk_fb_2.xi62.xi10.        pmos_b             1.00 
      397 xds.xclk_fb_2.xi19.xn1.         nmos_b             1.00 
      398 xds.xclk_fb_2.xi19.xi9.         nmos_b             1.00 
      399 xds.xclk_fb_2.xi19.xp1.         pmos_b             1.00 
      400 xds.xclk_fb_2.xi19.xi10.        pmos_b             1.00 
      401 xds.xclk_fb_3.xi64.xp1.         pmos_b             1.00 
      402 xds.xclk_fb_3.xi64.xn1.         nmos_b             1.00 
      403 xds.xclk_fb_3.xi20.xp1.         pmos_b             1.00 
      404 xds.xclk_fb_3.xi20.xn1.         nmos_b             1.00 
      405 xds.xclk_fb_3.xi60.xp1.         pmos_b             1.00 
      406 xds.xclk_fb_3.xi60.xn1.         nmos_b             1.00 
      407 xds.xclk_fb_3.xi59.xp1.         pmos_b             1.00 
      408 xds.xclk_fb_3.xi59.xn1.         nmos_b             1.00 
      409 xds.xclk_fb_3.xi63.xp1.         pmos_b             1.00 
      410 xds.xclk_fb_3.xi63.xn1.         nmos_b             1.00 
      411 xds.xclk_fb_3.xi62.xn1.         nmos_b             1.00 
      412 xds.xclk_fb_3.xi62.xi9.         nmos_b             1.00 
      413 xds.xclk_fb_3.xi62.xp1.         pmos_b             1.00 
      414 xds.xclk_fb_3.xi62.xi10.        pmos_b             1.00 
      415 xds.xclk_fb_3.xi19.xn1.         nmos_b             1.00 
      416 xds.xclk_fb_3.xi19.xi9.         nmos_b             1.00 
      417 xds.xclk_fb_3.xi19.xp1.         pmos_b             1.00 
      418 xds.xclk_fb_3.xi19.xi10.        pmos_b             1.00 
      419 xsar.xc_array_p.xsa_dac.xswdac_0.
                                            dac_sw             1.00 
      420 xsar.xc_array_p.xsa_dac.xswdac_1.
                                            dac_sw             1.00 
      421 xsar.xc_array_p.xsa_dac.xswdac_2.
                                            dac_sw             1.00 
      422 xsar.xc_array_p.xsa_dac.xswdac_3.
                                            dac_sw             1.00 
      423 xsar.xc_array_p.xsa_dac.xswdac_4.
                                            dac_sw             1.00 
      424 xsar.xc_array_p.xsa_dac.xswdac_5.
                                            dac_sw             1.00 
      425 xsar.xc_array_p.xsa_dac.xswdac_6.
                                            dac_sw             1.00 
      426 xsar.xc_array_p.xsa_dac.xswdac_7.
                                            dac_sw             1.00 
      427 xsar.xc_array_p.xsa_dac.xi1.    inv_bhv            1.00 
      428 xsar.xc_array_p.xsa_dac.xswdac00.
                                            tgb                1.00 
      429 xsar.xc_array_p.xsa_dac.xswvin. tgb                1.00 
      430 xsar.xc_array_n.xsa_dac.xswdac_0.
                                            dac_sw             1.00 
      431 xsar.xc_array_n.xsa_dac.xswdac_1.
                                            dac_sw             1.00 
      432 xsar.xc_array_n.xsa_dac.xswdac_2.
                                            dac_sw             1.00 
      433 xsar.xc_array_n.xsa_dac.xswdac_3.
                                            dac_sw             1.00 
      434 xsar.xc_array_n.xsa_dac.xswdac_4.
                                            dac_sw             1.00 
      435 xsar.xc_array_n.xsa_dac.xswdac_5.
                                            dac_sw             1.00 
      436 xsar.xc_array_n.xsa_dac.xswdac_6.
                                            dac_sw             1.00 
      437 xsar.xc_array_n.xsa_dac.xswdac_7.
                                            dac_sw             1.00 
      438 xsar.xc_array_n.xsa_dac.xi1.    inv_bhv            1.00 
      439 xsar.xc_array_n.xsa_dac.xswdac00.
                                            tgb                1.00 
      440 xsar.xc_array_n.xsa_dac.xswvin. tgb                1.00 
      441 xsar.xsa_logic.xi36.xp1.        pmos_b             1.00 
      442 xsar.xsa_logic.xi36.xn1.        nmos_b             1.00 
      443 xsar.xsa_logic.xi19.xn1.        nmos_b             1.00 
      444 xsar.xsa_logic.xi19.xi9.        nmos_b             1.00 
      445 xsar.xsa_logic.xi19.xp1.        pmos_b             1.00 
      446 xsar.xsa_logic.xi19.xi10.       pmos_b             1.00 
      447 xsar.xsa_logic.xi23.xn1.        nmos_b             1.00 
      448 xsar.xsa_logic.xi23.xi9.        nmos_b             1.00 
      449 xsar.xsa_logic.xi23.xp1.        pmos_b             1.00 
      450 xsar.xsa_logic.xi23.xi10.       pmos_b             1.00 
      451 xsar.xsa_logic.xi22.xn1.        nmos_b             1.00 
      452 xsar.xsa_logic.xi22.xi9.        nmos_b             1.00 
      453 xsar.xsa_logic.xi22.xp1.        pmos_b             1.00 
      454 xsar.xsa_logic.xi22.xi10.       pmos_b             1.00 
      455 xsar.xsa_logic.xi26.xn1.        nmos_b             1.00 
      456 xsar.xsa_logic.xi26.xi9.        nmos_b             1.00 
      457 xsar.xsa_logic.xi26.xp1.        pmos_b             1.00 
      458 xsar.xsa_logic.xi26.xi10.       pmos_b             1.00 
      459 xsar.xsa_logic.xi27.xn1.        nmos_b             1.00 
      460 xsar.xsa_logic.xi27.xi9.        nmos_b             1.00 
      461 xsar.xsa_logic.xi27.xp1.        pmos_b             1.00 
      462 xsar.xsa_logic.xi27.xi10.       pmos_b             1.00 
      463 xsar.xsa_logic.xi29.xn1.        nmos_b             1.00 
      464 xsar.xsa_logic.xi29.xi9.        nmos_b             1.00 
      465 xsar.xsa_logic.xi29.xp1.        pmos_b             1.00 
      466 xsar.xsa_logic.xi29.xi10.       pmos_b             1.00 
      467 xsar.xsa_logic.xi32.xn1.        nmos_b             1.00 
      468 xsar.xsa_logic.xi32.xi9.        nmos_b             1.00 
      469 xsar.xsa_logic.xi32.xp1.        pmos_b             1.00 
      470 xsar.xsa_logic.xi32.xi10.       pmos_b             1.00 
      471 xsar.xsa_logic.xi33.xn1.        nmos_b             1.00 
      472 xsar.xsa_logic.xi33.xi9.        nmos_b             1.00 
      473 xsar.xsa_logic.xi33.xp1.        pmos_b             1.00 
      474 xsar.xsa_logic.xi33.xi10.       pmos_b             1.00 
      475 xsar.xsa_logic.xi24.xn1.        nmos_b             1.00 
      476 xsar.xsa_logic.xi24.xi9.        nmos_b             1.00 
      477 xsar.xsa_logic.xi24.xp1.        pmos_b             1.00 
      478 xsar.xsa_logic.xi24.xi10.       pmos_b             1.00 
      479 xsar.xsa_logic.xi20.xn1.        nmos_b             1.00 
      480 xsar.xsa_logic.xi20.xi9.        nmos_b             1.00 
      481 xsar.xsa_logic.xi20.xp1.        pmos_b             1.00 
      482 xsar.xsa_logic.xi20.xi10.       pmos_b             1.00 
      483 xsar.xsa_logic.xi21.xn1.        nmos_b             1.00 
      484 xsar.xsa_logic.xi21.xi9.        nmos_b             1.00 
      485 xsar.xsa_logic.xi21.xp1.        pmos_b             1.00 
      486 xsar.xsa_logic.xi21.xi10.       pmos_b             1.00 
      487 xsar.xsa_logic.xi25.xn1.        nmos_b             1.00 
      488 xsar.xsa_logic.xi25.xi9.        nmos_b             1.00 
      489 xsar.xsa_logic.xi25.xp1.        pmos_b             1.00 
      490 xsar.xsa_logic.xi25.xi10.       pmos_b             1.00 
      491 xsar.xsa_logic.xi28.xn1.        nmos_b             1.00 
      492 xsar.xsa_logic.xi28.xi9.        nmos_b             1.00 
      493 xsar.xsa_logic.xi28.xp1.        pmos_b             1.00 
      494 xsar.xsa_logic.xi28.xi10.       pmos_b             1.00 
      495 xsar.xsa_logic.xi30.xn1.        nmos_b             1.00 
      496 xsar.xsa_logic.xi30.xi9.        nmos_b             1.00 
      497 xsar.xsa_logic.xi30.xp1.        pmos_b             1.00 
      498 xsar.xsa_logic.xi30.xi10.       pmos_b             1.00 
      499 xsar.xsa_logic.xi31.xn1.        nmos_b             1.00 
      500 xsar.xsa_logic.xi31.xi9.        nmos_b             1.00 
      501 xsar.xsa_logic.xi31.xp1.        pmos_b             1.00 
      502 xsar.xsa_logic.xi31.xi10.       pmos_b             1.00 
      503 xsar.xsa_logic.xi34.xn1.        nmos_b             1.00 
      504 xsar.xsa_logic.xi34.xi9.        nmos_b             1.00 
      505 xsar.xsa_logic.xi34.xp1.        pmos_b             1.00 
      506 xsar.xsa_logic.xi34.xi10.       pmos_b             1.00 
      507 xsar.xsa_logic.xdata3.xi1.      inv_bhv            1.00 
      508 xsar.xsa_logic.xdata3.xi40.     tgb                1.00 
      509 xsar.xsa_logic.xdata3.xi34.     tgb                1.00 
      510 xsar.xsa_logic.xdata3.xi41.     tgb                1.00 
      511 xsar.xsa_logic.xdata3.xsw1.     tgb                1.00 
      512 xsar.xsa_logic.xdata3.xi42.     nor2_bhv           1.00 
      513 xsar.xsa_logic.xdata3.xi43.     nor2_bhv           1.00 
      514 xsar.xsa_logic.xdata3.xi31.     nor2_bhv           1.00 
      515 xsar.xsa_logic.xdata3.xi37.     nor2_bhv           1.00 
      516 xsar.xsa_logic.xdata2.xi1.      inv_bhv            1.00 
      517 xsar.xsa_logic.xdata2.xi40.     tgb                1.00 
      518 xsar.xsa_logic.xdata2.xi34.     tgb                1.00 
      519 xsar.xsa_logic.xdata2.xi41.     tgb                1.00 
      520 xsar.xsa_logic.xdata2.xsw1.     tgb                1.00 
      521 xsar.xsa_logic.xdata2.xi42.     nor2_bhv           1.00 
      522 xsar.xsa_logic.xdata2.xi43.     nor2_bhv           1.00 
      523 xsar.xsa_logic.xdata2.xi31.     nor2_bhv           1.00 
      524 xsar.xsa_logic.xdata2.xi37.     nor2_bhv           1.00 
      525 xsar.xsa_logic.xdata1.xi1.      inv_bhv            1.00 
      526 xsar.xsa_logic.xdata1.xi40.     tgb                1.00 
      527 xsar.xsa_logic.xdata1.xi34.     tgb                1.00 
      528 xsar.xsa_logic.xdata1.xi41.     tgb                1.00 
      529 xsar.xsa_logic.xdata1.xsw1.     tgb                1.00 
      530 xsar.xsa_logic.xdata1.xi42.     nor2_bhv           1.00 
      531 xsar.xsa_logic.xdata1.xi43.     nor2_bhv           1.00 
      532 xsar.xsa_logic.xdata1.xi31.     nor2_bhv           1.00 
      533 xsar.xsa_logic.xdata1.xi37.     nor2_bhv           1.00 
      534 xsar.xsa_logic.xdata0.xi1.      inv_bhv            1.00 
      535 xsar.xsa_logic.xdata0.xi40.     tgb                1.00 
      536 xsar.xsa_logic.xdata0.xi34.     tgb                1.00 
      537 xsar.xsa_logic.xdata0.xi41.     tgb                1.00 
      538 xsar.xsa_logic.xdata0.xsw1.     tgb                1.00 
      539 xsar.xsa_logic.xdata0.xi42.     nor2_bhv           1.00 
      540 xsar.xsa_logic.xdata0.xi43.     nor2_bhv           1.00 
      541 xsar.xsa_logic.xdata0.xi31.     nor2_bhv           1.00 
      542 xsar.xsa_logic.xdata0.xi37.     nor2_bhv           1.00 
      543 xsar.xsa_logic.xdata5.xi1.      inv_bhv            1.00 
      544 xsar.xsa_logic.xdata5.xi40.     tgb                1.00 
      545 xsar.xsa_logic.xdata5.xi34.     tgb                1.00 
      546 xsar.xsa_logic.xdata5.xi41.     tgb                1.00 
      547 xsar.xsa_logic.xdata5.xsw1.     tgb                1.00 
      548 xsar.xsa_logic.xdata5.xi42.     nor2_bhv           1.00 
      549 xsar.xsa_logic.xdata5.xi43.     nor2_bhv           1.00 
      550 xsar.xsa_logic.xdata5.xi31.     nor2_bhv           1.00 
      551 xsar.xsa_logic.xdata5.xi37.     nor2_bhv           1.00 
      552 xsar.xsa_logic.xrsh0.xi1.       inv_bhv            1.00 
      553 xsar.xsa_logic.xrsh0.xi40.      tgb                1.00 
      554 xsar.xsa_logic.xrsh0.xi34.      tgb                1.00 
      555 xsar.xsa_logic.xrsh0.xi41.      tgb                1.00 
      556 xsar.xsa_logic.xrsh0.xsw1.      tgb                1.00 
      557 xsar.xsa_logic.xrsh0.xi42.      nor2_bhv           1.00 
      558 xsar.xsa_logic.xrsh0.xi43.      nor2_bhv           1.00 
      559 xsar.xsa_logic.xrsh0.xi31.      nor2_bhv           1.00 
      560 xsar.xsa_logic.xrsh0.xi37.      nor2_bhv           1.00 
      561 xsar.xsa_logic.xrsh3.xi1.       inv_bhv            1.00 
      562 xsar.xsa_logic.xrsh3.xi40.      tgb                1.00 
      563 xsar.xsa_logic.xrsh3.xi34.      tgb                1.00 
      564 xsar.xsa_logic.xrsh3.xi41.      tgb                1.00 
      565 xsar.xsa_logic.xrsh3.xsw1.      tgb                1.00 
      566 xsar.xsa_logic.xrsh3.xi42.      nor2_bhv           1.00 
      567 xsar.xsa_logic.xrsh3.xi43.      nor2_bhv           1.00 
      568 xsar.xsa_logic.xrsh3.xi31.      nor2_bhv           1.00 
      569 xsar.xsa_logic.xrsh3.xi37.      nor2_bhv           1.00 
      570 xsar.xsa_logic.xrsh2.xi1.       inv_bhv            1.00 
      571 xsar.xsa_logic.xrsh2.xi40.      tgb                1.00 
      572 xsar.xsa_logic.xrsh2.xi34.      tgb                1.00 
      573 xsar.xsa_logic.xrsh2.xi41.      tgb                1.00 
      574 xsar.xsa_logic.xrsh2.xsw1.      tgb                1.00 
      575 xsar.xsa_logic.xrsh2.xi42.      nor2_bhv           1.00 
      576 xsar.xsa_logic.xrsh2.xi43.      nor2_bhv           1.00 
      577 xsar.xsa_logic.xrsh2.xi31.      nor2_bhv           1.00 
      578 xsar.xsa_logic.xrsh2.xi37.      nor2_bhv           1.00 
      579 xsar.xsa_logic.xrsh1.xi1.       inv_bhv            1.00 
      580 xsar.xsa_logic.xrsh1.xi40.      tgb                1.00 
      581 xsar.xsa_logic.xrsh1.xi34.      tgb                1.00 
      582 xsar.xsa_logic.xrsh1.xi41.      tgb                1.00 
      583 xsar.xsa_logic.xrsh1.xsw1.      tgb                1.00 
      584 xsar.xsa_logic.xrsh1.xi42.      nor2_bhv           1.00 
      585 xsar.xsa_logic.xrsh1.xi43.      nor2_bhv           1.00 
      586 xsar.xsa_logic.xrsh1.xi31.      nor2_bhv           1.00 
      587 xsar.xsa_logic.xrsh1.xi37.      nor2_bhv           1.00 
      588 xsar.xsa_logic.xrsh4.xi1.       inv_bhv            1.00 
      589 xsar.xsa_logic.xrsh4.xi40.      tgb                1.00 
      590 xsar.xsa_logic.xrsh4.xi34.      tgb                1.00 
      591 xsar.xsa_logic.xrsh4.xi41.      tgb                1.00 
      592 xsar.xsa_logic.xrsh4.xsw1.      tgb                1.00 
      593 xsar.xsa_logic.xrsh4.xi42.      nor2_bhv           1.00 
      594 xsar.xsa_logic.xrsh4.xi43.      nor2_bhv           1.00 
      595 xsar.xsa_logic.xrsh4.xi31.      nor2_bhv           1.00 
      596 xsar.xsa_logic.xrsh4.xi37.      nor2_bhv           1.00 
      597 xsar.xsa_logic.xdata7.xi1.      inv_bhv            1.00 
      598 xsar.xsa_logic.xdata7.xi40.     tgb                1.00 
      599 xsar.xsa_logic.xdata7.xi34.     tgb                1.00 
      600 xsar.xsa_logic.xdata7.xi41.     tgb                1.00 
      601 xsar.xsa_logic.xdata7.xsw1.     tgb                1.00 
      602 xsar.xsa_logic.xdata7.xi42.     nor2_bhv           1.00 
      603 xsar.xsa_logic.xdata7.xi43.     nor2_bhv           1.00 
      604 xsar.xsa_logic.xdata7.xi31.     nor2_bhv           1.00 
      605 xsar.xsa_logic.xdata7.xi37.     nor2_bhv           1.00 
      606 xsar.xsa_logic.xrsh5.xi1.       inv_bhv            1.00 
      607 xsar.xsa_logic.xrsh5.xi40.      tgb                1.00 
      608 xsar.xsa_logic.xrsh5.xi34.      tgb                1.00 
      609 xsar.xsa_logic.xrsh5.xi41.      tgb                1.00 
      610 xsar.xsa_logic.xrsh5.xsw1.      tgb                1.00 
      611 xsar.xsa_logic.xrsh5.xi42.      nor2_bhv           1.00 
      612 xsar.xsa_logic.xrsh5.xi43.      nor2_bhv           1.00 
      613 xsar.xsa_logic.xrsh5.xi31.      nor2_bhv           1.00 
      614 xsar.xsa_logic.xrsh5.xi37.      nor2_bhv           1.00 
      615 xsar.xsa_logic.xdata6.xi1.      inv_bhv            1.00 
      616 xsar.xsa_logic.xdata6.xi40.     tgb                1.00 
      617 xsar.xsa_logic.xdata6.xi34.     tgb                1.00 
      618 xsar.xsa_logic.xdata6.xi41.     tgb                1.00 
      619 xsar.xsa_logic.xdata6.xsw1.     tgb                1.00 
      620 xsar.xsa_logic.xdata6.xi42.     nor2_bhv           1.00 
      621 xsar.xsa_logic.xdata6.xi43.     nor2_bhv           1.00 
      622 xsar.xsa_logic.xdata6.xi31.     nor2_bhv           1.00 
      623 xsar.xsa_logic.xdata6.xi37.     nor2_bhv           1.00 
      624 xsar.xsa_logic.xdata4.xi1.      inv_bhv            1.00 
      625 xsar.xsa_logic.xdata4.xi40.     tgb                1.00 
      626 xsar.xsa_logic.xdata4.xi34.     tgb                1.00 
      627 xsar.xsa_logic.xdata4.xi41.     tgb                1.00 
      628 xsar.xsa_logic.xdata4.xsw1.     tgb                1.00 
      629 xsar.xsa_logic.xdata4.xi42.     nor2_bhv           1.00 
      630 xsar.xsa_logic.xdata4.xi43.     nor2_bhv           1.00 
      631 xsar.xsa_logic.xdata4.xi31.     nor2_bhv           1.00 
      632 xsar.xsa_logic.xdata4.xi37.     nor2_bhv           1.00 
      633 xsar.xsa_logic.xrsh6.xi1.       inv_bhv            1.00 
      634 xsar.xsa_logic.xrsh6.xi40.      tgb                1.00 
      635 xsar.xsa_logic.xrsh6.xi34.      tgb                1.00 
      636 xsar.xsa_logic.xrsh6.xi41.      tgb                1.00 
      637 xsar.xsa_logic.xrsh6.xsw1.      tgb                1.00 
      638 xsar.xsa_logic.xrsh6.xi42.      nor2_bhv           1.00 
      639 xsar.xsa_logic.xrsh6.xi43.      nor2_bhv           1.00 
      640 xsar.xsa_logic.xrsh6.xi31.      nor2_bhv           1.00 
      641 xsar.xsa_logic.xrsh6.xi37.      nor2_bhv           1.00 
      642 xsar.xsa_logic.xrsh7.xi1.       inv_bhv            1.00 
      643 xsar.xsa_logic.xrsh7.xi40.      tgb                1.00 
      644 xsar.xsa_logic.xrsh7.xi34.      tgb                1.00 
      645 xsar.xsa_logic.xrsh7.xi41.      tgb                1.00 
      646 xsar.xsa_logic.xrsh7.xsw1.      tgb                1.00 
      647 xsar.xsa_logic.xrsh7.xi42.      nor2_bhv           1.00 
      648 xsar.xsa_logic.xrsh7.xi43.      nor2_bhv           1.00 
      649 xsar.xsa_logic.xrsh7.xi31.      nor2_bhv           1.00 
      650 xsar.xsa_logic.xrsh7.xi37.      nor2_bhv           1.00 
      651 xsar.xdffout_7.xi1.xp1.         pmos_b             1.00 
      652 xsar.xdffout_7.xi1.xn1.         nmos_b             1.00 
      653 xsar.xdffout_7.xi42.xn1.        nmos_b             1.00 
      654 xsar.xdffout_7.xi42.xi9.        nmos_b             1.00 
      655 xsar.xdffout_7.xi42.xp1.        pmos_b             1.00 
      656 xsar.xdffout_7.xi42.xi10.       pmos_b             1.00 
      657 xsar.xdffout_7.xi43.xn1.        nmos_b             1.00 
      658 xsar.xdffout_7.xi43.xi9.        nmos_b             1.00 
      659 xsar.xdffout_7.xi43.xp1.        pmos_b             1.00 
      660 xsar.xdffout_7.xi43.xi10.       pmos_b             1.00 
      661 xsar.xdffout_7.xi31.xn1.        nmos_b             1.00 
      662 xsar.xdffout_7.xi31.xi9.        nmos_b             1.00 
      663 xsar.xdffout_7.xi31.xp1.        pmos_b             1.00 
      664 xsar.xdffout_7.xi31.xi10.       pmos_b             1.00 
      665 xsar.xdffout_7.xi37.xn1.        nmos_b             1.00 
      666 xsar.xdffout_7.xi37.xi9.        nmos_b             1.00 
      667 xsar.xdffout_7.xi37.xp1.        pmos_b             1.00 
      668 xsar.xdffout_7.xi37.xi10.       pmos_b             1.00 
      669 xsar.xdffout_6.xi1.xp1.         pmos_b             1.00 
      670 xsar.xdffout_6.xi1.xn1.         nmos_b             1.00 
      671 xsar.xdffout_6.xi42.xn1.        nmos_b             1.00 
      672 xsar.xdffout_6.xi42.xi9.        nmos_b             1.00 
      673 xsar.xdffout_6.xi42.xp1.        pmos_b             1.00 
      674 xsar.xdffout_6.xi42.xi10.       pmos_b             1.00 
      675 xsar.xdffout_6.xi43.xn1.        nmos_b             1.00 
      676 xsar.xdffout_6.xi43.xi9.        nmos_b             1.00 
      677 xsar.xdffout_6.xi43.xp1.        pmos_b             1.00 
      678 xsar.xdffout_6.xi43.xi10.       pmos_b             1.00 
      679 xsar.xdffout_6.xi31.xn1.        nmos_b             1.00 
      680 xsar.xdffout_6.xi31.xi9.        nmos_b             1.00 
      681 xsar.xdffout_6.xi31.xp1.        pmos_b             1.00 
      682 xsar.xdffout_6.xi31.xi10.       pmos_b             1.00 
      683 xsar.xdffout_6.xi37.xn1.        nmos_b             1.00 
      684 xsar.xdffout_6.xi37.xi9.        nmos_b             1.00 
      685 xsar.xdffout_6.xi37.xp1.        pmos_b             1.00 
      686 xsar.xdffout_6.xi37.xi10.       pmos_b             1.00 
      687 xsar.xdffout_5.xi1.xp1.         pmos_b             1.00 
      688 xsar.xdffout_5.xi1.xn1.         nmos_b             1.00 
      689 xsar.xdffout_5.xi42.xn1.        nmos_b             1.00 
      690 xsar.xdffout_5.xi42.xi9.        nmos_b             1.00 
      691 xsar.xdffout_5.xi42.xp1.        pmos_b             1.00 
      692 xsar.xdffout_5.xi42.xi10.       pmos_b             1.00 
      693 xsar.xdffout_5.xi43.xn1.        nmos_b             1.00 
      694 xsar.xdffout_5.xi43.xi9.        nmos_b             1.00 
      695 xsar.xdffout_5.xi43.xp1.        pmos_b             1.00 
      696 xsar.xdffout_5.xi43.xi10.       pmos_b             1.00 
      697 xsar.xdffout_5.xi31.xn1.        nmos_b             1.00 
      698 xsar.xdffout_5.xi31.xi9.        nmos_b             1.00 
      699 xsar.xdffout_5.xi31.xp1.        pmos_b             1.00 
      700 xsar.xdffout_5.xi31.xi10.       pmos_b             1.00 
      701 xsar.xdffout_5.xi37.xn1.        nmos_b             1.00 
      702 xsar.xdffout_5.xi37.xi9.        nmos_b             1.00 
      703 xsar.xdffout_5.xi37.xp1.        pmos_b             1.00 
      704 xsar.xdffout_5.xi37.xi10.       pmos_b             1.00 
      705 xsar.xdffout_4.xi1.xp1.         pmos_b             1.00 
      706 xsar.xdffout_4.xi1.xn1.         nmos_b             1.00 
      707 xsar.xdffout_4.xi42.xn1.        nmos_b             1.00 
      708 xsar.xdffout_4.xi42.xi9.        nmos_b             1.00 
      709 xsar.xdffout_4.xi42.xp1.        pmos_b             1.00 
      710 xsar.xdffout_4.xi42.xi10.       pmos_b             1.00 
      711 xsar.xdffout_4.xi43.xn1.        nmos_b             1.00 
      712 xsar.xdffout_4.xi43.xi9.        nmos_b             1.00 
      713 xsar.xdffout_4.xi43.xp1.        pmos_b             1.00 
      714 xsar.xdffout_4.xi43.xi10.       pmos_b             1.00 
      715 xsar.xdffout_4.xi31.xn1.        nmos_b             1.00 
      716 xsar.xdffout_4.xi31.xi9.        nmos_b             1.00 
      717 xsar.xdffout_4.xi31.xp1.        pmos_b             1.00 
      718 xsar.xdffout_4.xi31.xi10.       pmos_b             1.00 
      719 xsar.xdffout_4.xi37.xn1.        nmos_b             1.00 
      720 xsar.xdffout_4.xi37.xi9.        nmos_b             1.00 
      721 xsar.xdffout_4.xi37.xp1.        pmos_b             1.00 
      722 xsar.xdffout_4.xi37.xi10.       pmos_b             1.00 
      723 xsar.xdffout_3.xi1.xp1.         pmos_b             1.00 
      724 xsar.xdffout_3.xi1.xn1.         nmos_b             1.00 
      725 xsar.xdffout_3.xi42.xn1.        nmos_b             1.00 
      726 xsar.xdffout_3.xi42.xi9.        nmos_b             1.00 
      727 xsar.xdffout_3.xi42.xp1.        pmos_b             1.00 
      728 xsar.xdffout_3.xi42.xi10.       pmos_b             1.00 
      729 xsar.xdffout_3.xi43.xn1.        nmos_b             1.00 
      730 xsar.xdffout_3.xi43.xi9.        nmos_b             1.00 
      731 xsar.xdffout_3.xi43.xp1.        pmos_b             1.00 
      732 xsar.xdffout_3.xi43.xi10.       pmos_b             1.00 
      733 xsar.xdffout_3.xi31.xn1.        nmos_b             1.00 
      734 xsar.xdffout_3.xi31.xi9.        nmos_b             1.00 
      735 xsar.xdffout_3.xi31.xp1.        pmos_b             1.00 
      736 xsar.xdffout_3.xi31.xi10.       pmos_b             1.00 
      737 xsar.xdffout_3.xi37.xn1.        nmos_b             1.00 
      738 xsar.xdffout_3.xi37.xi9.        nmos_b             1.00 
      739 xsar.xdffout_3.xi37.xp1.        pmos_b             1.00 
      740 xsar.xdffout_3.xi37.xi10.       pmos_b             1.00 
      741 xsar.xdffout_2.xi1.xp1.         pmos_b             1.00 
      742 xsar.xdffout_2.xi1.xn1.         nmos_b             1.00 
      743 xsar.xdffout_2.xi42.xn1.        nmos_b             1.00 
      744 xsar.xdffout_2.xi42.xi9.        nmos_b             1.00 
      745 xsar.xdffout_2.xi42.xp1.        pmos_b             1.00 
      746 xsar.xdffout_2.xi42.xi10.       pmos_b             1.00 
      747 xsar.xdffout_2.xi43.xn1.        nmos_b             1.00 
      748 xsar.xdffout_2.xi43.xi9.        nmos_b             1.00 
      749 xsar.xdffout_2.xi43.xp1.        pmos_b             1.00 
      750 xsar.xdffout_2.xi43.xi10.       pmos_b             1.00 
      751 xsar.xdffout_2.xi31.xn1.        nmos_b             1.00 
      752 xsar.xdffout_2.xi31.xi9.        nmos_b             1.00 
      753 xsar.xdffout_2.xi31.xp1.        pmos_b             1.00 
      754 xsar.xdffout_2.xi31.xi10.       pmos_b             1.00 
      755 xsar.xdffout_2.xi37.xn1.        nmos_b             1.00 
      756 xsar.xdffout_2.xi37.xi9.        nmos_b             1.00 
      757 xsar.xdffout_2.xi37.xp1.        pmos_b             1.00 
      758 xsar.xdffout_2.xi37.xi10.       pmos_b             1.00 
      759 xsar.xdffout_1.xi1.xp1.         pmos_b             1.00 
      760 xsar.xdffout_1.xi1.xn1.         nmos_b             1.00 
      761 xsar.xdffout_1.xi42.xn1.        nmos_b             1.00 
      762 xsar.xdffout_1.xi42.xi9.        nmos_b             1.00 
      763 xsar.xdffout_1.xi42.xp1.        pmos_b             1.00 
      764 xsar.xdffout_1.xi42.xi10.       pmos_b             1.00 
      765 xsar.xdffout_1.xi43.xn1.        nmos_b             1.00 
      766 xsar.xdffout_1.xi43.xi9.        nmos_b             1.00 
      767 xsar.xdffout_1.xi43.xp1.        pmos_b             1.00 
      768 xsar.xdffout_1.xi43.xi10.       pmos_b             1.00 
      769 xsar.xdffout_1.xi31.xn1.        nmos_b             1.00 
      770 xsar.xdffout_1.xi31.xi9.        nmos_b             1.00 
      771 xsar.xdffout_1.xi31.xp1.        pmos_b             1.00 
      772 xsar.xdffout_1.xi31.xi10.       pmos_b             1.00 
      773 xsar.xdffout_1.xi37.xn1.        nmos_b             1.00 
      774 xsar.xdffout_1.xi37.xi9.        nmos_b             1.00 
      775 xsar.xdffout_1.xi37.xp1.        pmos_b             1.00 
      776 xsar.xdffout_1.xi37.xi10.       pmos_b             1.00 
      777 xsar.xdffout_0.xi1.xp1.         pmos_b             1.00 
      778 xsar.xdffout_0.xi1.xn1.         nmos_b             1.00 
      779 xsar.xdffout_0.xi42.xn1.        nmos_b             1.00 
      780 xsar.xdffout_0.xi42.xi9.        nmos_b             1.00 
      781 xsar.xdffout_0.xi42.xp1.        pmos_b             1.00 
      782 xsar.xdffout_0.xi42.xi10.       pmos_b             1.00 
      783 xsar.xdffout_0.xi43.xn1.        nmos_b             1.00 
      784 xsar.xdffout_0.xi43.xi9.        nmos_b             1.00 
      785 xsar.xdffout_0.xi43.xp1.        pmos_b             1.00 
      786 xsar.xdffout_0.xi43.xi10.       pmos_b             1.00 
      787 xsar.xdffout_0.xi31.xn1.        nmos_b             1.00 
      788 xsar.xdffout_0.xi31.xi9.        nmos_b             1.00 
      789 xsar.xdffout_0.xi31.xp1.        pmos_b             1.00 
      790 xsar.xdffout_0.xi31.xi10.       pmos_b             1.00 
      791 xsar.xdffout_0.xi37.xn1.        nmos_b             1.00 
      792 xsar.xdffout_0.xi37.xi9.        nmos_b             1.00 
      793 xsar.xdffout_0.xi37.xp1.        pmos_b             1.00 
      794 xsar.xdffout_0.xi37.xi10.       pmos_b             1.00 
      795 xds.xquantizer_1b_0.xcmp3.xdff.xi13.
                                            dlatch             1.00 
      796 xds.xquantizer_1b_0.xcmp3.xdff.xi14.
                                            dlatch             1.00 
      797 xds.xquantizer_1b_1.xcmp3.xdff.xi13.
                                            dlatch             1.00 
      798 xds.xquantizer_1b_1.xcmp3.xdff.xi14.
                                            dlatch             1.00 
      799 xds.xquantizer_1b_2.xcmp3.xdff.xi13.
                                            dlatch             1.00 
      800 xds.xquantizer_1b_2.xcmp3.xdff.xi14.
                                            dlatch             1.00 
      801 xds.xquantizer_1b_3.xcmp3.xdff.xi13.
                                            dlatch             1.00 
      802 xds.xquantizer_1b_3.xcmp3.xdff.xi14.
                                            dlatch             1.00 
      803 xsar.xc_array_p.xsa_dac.xswdac_0.xi7.
                                            inv_bhv            1.00 
      804 xsar.xc_array_p.xsa_dac.xswdac_0.xi3.
                                            inv_bhv            1.00 
      805 xsar.xc_array_p.xsa_dac.xswdac_0.xi20.
                                            inv_bhv            1.00 
      806 xsar.xc_array_p.xsa_dac.xswdac_0.xi1.
                                            inv_bhv            1.00 
      807 xsar.xc_array_p.xsa_dac.xswdac_0.xi2.
                                            nand2_bhv          1.00 
      808 xsar.xc_array_p.xsa_dac.xswdac_0.xi19.
                                            nand2_bhv          1.00 
      809 xsar.xc_array_p.xsa_dac.xswdac_0.xswp.
                                            tgb                1.00 
      810 xsar.xc_array_p.xsa_dac.xswdac_0.xswn.
                                            tgb                1.00 
      811 xsar.xc_array_p.xsa_dac.xswdac_0.xswin.
                                            tgb                1.00 
      812 xsar.xc_array_p.xsa_dac.xswdac_1.xi7.
                                            inv_bhv            1.00 
      813 xsar.xc_array_p.xsa_dac.xswdac_1.xi3.
                                            inv_bhv            1.00 
      814 xsar.xc_array_p.xsa_dac.xswdac_1.xi20.
                                            inv_bhv            1.00 
      815 xsar.xc_array_p.xsa_dac.xswdac_1.xi1.
                                            inv_bhv            1.00 
      816 xsar.xc_array_p.xsa_dac.xswdac_1.xi2.
                                            nand2_bhv          1.00 
      817 xsar.xc_array_p.xsa_dac.xswdac_1.xi19.
                                            nand2_bhv          1.00 
      818 xsar.xc_array_p.xsa_dac.xswdac_1.xswp.
                                            tgb                1.00 
      819 xsar.xc_array_p.xsa_dac.xswdac_1.xswn.
                                            tgb                1.00 
      820 xsar.xc_array_p.xsa_dac.xswdac_1.xswin.
                                            tgb                1.00 
      821 xsar.xc_array_p.xsa_dac.xswdac_2.xi7.
                                            inv_bhv            1.00 
      822 xsar.xc_array_p.xsa_dac.xswdac_2.xi3.
                                            inv_bhv            1.00 
      823 xsar.xc_array_p.xsa_dac.xswdac_2.xi20.
                                            inv_bhv            1.00 
      824 xsar.xc_array_p.xsa_dac.xswdac_2.xi1.
                                            inv_bhv            1.00 
      825 xsar.xc_array_p.xsa_dac.xswdac_2.xi2.
                                            nand2_bhv          1.00 
      826 xsar.xc_array_p.xsa_dac.xswdac_2.xi19.
                                            nand2_bhv          1.00 
      827 xsar.xc_array_p.xsa_dac.xswdac_2.xswp.
                                            tgb                1.00 
      828 xsar.xc_array_p.xsa_dac.xswdac_2.xswn.
                                            tgb                1.00 
      829 xsar.xc_array_p.xsa_dac.xswdac_2.xswin.
                                            tgb                1.00 
      830 xsar.xc_array_p.xsa_dac.xswdac_3.xi7.
                                            inv_bhv            1.00 
      831 xsar.xc_array_p.xsa_dac.xswdac_3.xi3.
                                            inv_bhv            1.00 
      832 xsar.xc_array_p.xsa_dac.xswdac_3.xi20.
                                            inv_bhv            1.00 
      833 xsar.xc_array_p.xsa_dac.xswdac_3.xi1.
                                            inv_bhv            1.00 
      834 xsar.xc_array_p.xsa_dac.xswdac_3.xi2.
                                            nand2_bhv          1.00 
      835 xsar.xc_array_p.xsa_dac.xswdac_3.xi19.
                                            nand2_bhv          1.00 
      836 xsar.xc_array_p.xsa_dac.xswdac_3.xswp.
                                            tgb                1.00 
      837 xsar.xc_array_p.xsa_dac.xswdac_3.xswn.
                                            tgb                1.00 
      838 xsar.xc_array_p.xsa_dac.xswdac_3.xswin.
                                            tgb                1.00 
      839 xsar.xc_array_p.xsa_dac.xswdac_4.xi7.
                                            inv_bhv            1.00 
      840 xsar.xc_array_p.xsa_dac.xswdac_4.xi3.
                                            inv_bhv            1.00 
      841 xsar.xc_array_p.xsa_dac.xswdac_4.xi20.
                                            inv_bhv            1.00 
      842 xsar.xc_array_p.xsa_dac.xswdac_4.xi1.
                                            inv_bhv            1.00 
      843 xsar.xc_array_p.xsa_dac.xswdac_4.xi2.
                                            nand2_bhv          1.00 
      844 xsar.xc_array_p.xsa_dac.xswdac_4.xi19.
                                            nand2_bhv          1.00 
      845 xsar.xc_array_p.xsa_dac.xswdac_4.xswp.
                                            tgb                1.00 
      846 xsar.xc_array_p.xsa_dac.xswdac_4.xswn.
                                            tgb                1.00 
      847 xsar.xc_array_p.xsa_dac.xswdac_4.xswin.
                                            tgb                1.00 
      848 xsar.xc_array_p.xsa_dac.xswdac_5.xi7.
                                            inv_bhv            1.00 
      849 xsar.xc_array_p.xsa_dac.xswdac_5.xi3.
                                            inv_bhv            1.00 
      850 xsar.xc_array_p.xsa_dac.xswdac_5.xi20.
                                            inv_bhv            1.00 
      851 xsar.xc_array_p.xsa_dac.xswdac_5.xi1.
                                            inv_bhv            1.00 
      852 xsar.xc_array_p.xsa_dac.xswdac_5.xi2.
                                            nand2_bhv          1.00 
      853 xsar.xc_array_p.xsa_dac.xswdac_5.xi19.
                                            nand2_bhv          1.00 
      854 xsar.xc_array_p.xsa_dac.xswdac_5.xswp.
                                            tgb                1.00 
      855 xsar.xc_array_p.xsa_dac.xswdac_5.xswn.
                                            tgb                1.00 
      856 xsar.xc_array_p.xsa_dac.xswdac_5.xswin.
                                            tgb                1.00 
      857 xsar.xc_array_p.xsa_dac.xswdac_6.xi7.
                                            inv_bhv            1.00 
      858 xsar.xc_array_p.xsa_dac.xswdac_6.xi3.
                                            inv_bhv            1.00 
      859 xsar.xc_array_p.xsa_dac.xswdac_6.xi20.
                                            inv_bhv            1.00 
      860 xsar.xc_array_p.xsa_dac.xswdac_6.xi1.
                                            inv_bhv            1.00 
      861 xsar.xc_array_p.xsa_dac.xswdac_6.xi2.
                                            nand2_bhv          1.00 
      862 xsar.xc_array_p.xsa_dac.xswdac_6.xi19.
                                            nand2_bhv          1.00 
      863 xsar.xc_array_p.xsa_dac.xswdac_6.xswp.
                                            tgb                1.00 
      864 xsar.xc_array_p.xsa_dac.xswdac_6.xswn.
                                            tgb                1.00 
      865 xsar.xc_array_p.xsa_dac.xswdac_6.xswin.
                                            tgb                1.00 
      866 xsar.xc_array_p.xsa_dac.xswdac_7.xi7.
                                            inv_bhv            1.00 
      867 xsar.xc_array_p.xsa_dac.xswdac_7.xi3.
                                            inv_bhv            1.00 
      868 xsar.xc_array_p.xsa_dac.xswdac_7.xi20.
                                            inv_bhv            1.00 
      869 xsar.xc_array_p.xsa_dac.xswdac_7.xi1.
                                            inv_bhv            1.00 
      870 xsar.xc_array_p.xsa_dac.xswdac_7.xi2.
                                            nand2_bhv          1.00 
      871 xsar.xc_array_p.xsa_dac.xswdac_7.xi19.
                                            nand2_bhv          1.00 
      872 xsar.xc_array_p.xsa_dac.xswdac_7.xswp.
                                            tgb                1.00 
      873 xsar.xc_array_p.xsa_dac.xswdac_7.xswn.
                                            tgb                1.00 
      874 xsar.xc_array_p.xsa_dac.xswdac_7.xswin.
                                            tgb                1.00 
      875 xsar.xc_array_p.xsa_dac.xi1.xp1.
                                            pmos_b             1.00 
      876 xsar.xc_array_p.xsa_dac.xi1.xn1.
                                            nmos_b             1.00 
      877 xsar.xc_array_n.xsa_dac.xswdac_0.xi7.
                                            inv_bhv            1.00 
      878 xsar.xc_array_n.xsa_dac.xswdac_0.xi3.
                                            inv_bhv            1.00 
      879 xsar.xc_array_n.xsa_dac.xswdac_0.xi20.
                                            inv_bhv            1.00 
      880 xsar.xc_array_n.xsa_dac.xswdac_0.xi1.
                                            inv_bhv            1.00 
      881 xsar.xc_array_n.xsa_dac.xswdac_0.xi2.
                                            nand2_bhv          1.00 
      882 xsar.xc_array_n.xsa_dac.xswdac_0.xi19.
                                            nand2_bhv          1.00 
      883 xsar.xc_array_n.xsa_dac.xswdac_0.xswp.
                                            tgb                1.00 
      884 xsar.xc_array_n.xsa_dac.xswdac_0.xswn.
                                            tgb                1.00 
      885 xsar.xc_array_n.xsa_dac.xswdac_0.xswin.
                                            tgb                1.00 
      886 xsar.xc_array_n.xsa_dac.xswdac_1.xi7.
                                            inv_bhv            1.00 
      887 xsar.xc_array_n.xsa_dac.xswdac_1.xi3.
                                            inv_bhv            1.00 
      888 xsar.xc_array_n.xsa_dac.xswdac_1.xi20.
                                            inv_bhv            1.00 
      889 xsar.xc_array_n.xsa_dac.xswdac_1.xi1.
                                            inv_bhv            1.00 
      890 xsar.xc_array_n.xsa_dac.xswdac_1.xi2.
                                            nand2_bhv          1.00 
      891 xsar.xc_array_n.xsa_dac.xswdac_1.xi19.
                                            nand2_bhv          1.00 
      892 xsar.xc_array_n.xsa_dac.xswdac_1.xswp.
                                            tgb                1.00 
      893 xsar.xc_array_n.xsa_dac.xswdac_1.xswn.
                                            tgb                1.00 
      894 xsar.xc_array_n.xsa_dac.xswdac_1.xswin.
                                            tgb                1.00 
      895 xsar.xc_array_n.xsa_dac.xswdac_2.xi7.
                                            inv_bhv            1.00 
      896 xsar.xc_array_n.xsa_dac.xswdac_2.xi3.
                                            inv_bhv            1.00 
      897 xsar.xc_array_n.xsa_dac.xswdac_2.xi20.
                                            inv_bhv            1.00 
      898 xsar.xc_array_n.xsa_dac.xswdac_2.xi1.
                                            inv_bhv            1.00 
      899 xsar.xc_array_n.xsa_dac.xswdac_2.xi2.
                                            nand2_bhv          1.00 
      900 xsar.xc_array_n.xsa_dac.xswdac_2.xi19.
                                            nand2_bhv          1.00 
      901 xsar.xc_array_n.xsa_dac.xswdac_2.xswp.
                                            tgb                1.00 
      902 xsar.xc_array_n.xsa_dac.xswdac_2.xswn.
                                            tgb                1.00 
      903 xsar.xc_array_n.xsa_dac.xswdac_2.xswin.
                                            tgb                1.00 
      904 xsar.xc_array_n.xsa_dac.xswdac_3.xi7.
                                            inv_bhv            1.00 
      905 xsar.xc_array_n.xsa_dac.xswdac_3.xi3.
                                            inv_bhv            1.00 
      906 xsar.xc_array_n.xsa_dac.xswdac_3.xi20.
                                            inv_bhv            1.00 
      907 xsar.xc_array_n.xsa_dac.xswdac_3.xi1.
                                            inv_bhv            1.00 
      908 xsar.xc_array_n.xsa_dac.xswdac_3.xi2.
                                            nand2_bhv          1.00 
      909 xsar.xc_array_n.xsa_dac.xswdac_3.xi19.
                                            nand2_bhv          1.00 
      910 xsar.xc_array_n.xsa_dac.xswdac_3.xswp.
                                            tgb                1.00 
      911 xsar.xc_array_n.xsa_dac.xswdac_3.xswn.
                                            tgb                1.00 
      912 xsar.xc_array_n.xsa_dac.xswdac_3.xswin.
                                            tgb                1.00 
      913 xsar.xc_array_n.xsa_dac.xswdac_4.xi7.
                                            inv_bhv            1.00 
      914 xsar.xc_array_n.xsa_dac.xswdac_4.xi3.
                                            inv_bhv            1.00 
      915 xsar.xc_array_n.xsa_dac.xswdac_4.xi20.
                                            inv_bhv            1.00 
      916 xsar.xc_array_n.xsa_dac.xswdac_4.xi1.
                                            inv_bhv            1.00 
      917 xsar.xc_array_n.xsa_dac.xswdac_4.xi2.
                                            nand2_bhv          1.00 
      918 xsar.xc_array_n.xsa_dac.xswdac_4.xi19.
                                            nand2_bhv          1.00 
      919 xsar.xc_array_n.xsa_dac.xswdac_4.xswp.
                                            tgb                1.00 
      920 xsar.xc_array_n.xsa_dac.xswdac_4.xswn.
                                            tgb                1.00 
      921 xsar.xc_array_n.xsa_dac.xswdac_4.xswin.
                                            tgb                1.00 
      922 xsar.xc_array_n.xsa_dac.xswdac_5.xi7.
                                            inv_bhv            1.00 
      923 xsar.xc_array_n.xsa_dac.xswdac_5.xi3.
                                            inv_bhv            1.00 
      924 xsar.xc_array_n.xsa_dac.xswdac_5.xi20.
                                            inv_bhv            1.00 
      925 xsar.xc_array_n.xsa_dac.xswdac_5.xi1.
                                            inv_bhv            1.00 
      926 xsar.xc_array_n.xsa_dac.xswdac_5.xi2.
                                            nand2_bhv          1.00 
      927 xsar.xc_array_n.xsa_dac.xswdac_5.xi19.
                                            nand2_bhv          1.00 
      928 xsar.xc_array_n.xsa_dac.xswdac_5.xswp.
                                            tgb                1.00 
      929 xsar.xc_array_n.xsa_dac.xswdac_5.xswn.
                                            tgb                1.00 
      930 xsar.xc_array_n.xsa_dac.xswdac_5.xswin.
                                            tgb                1.00 
      931 xsar.xc_array_n.xsa_dac.xswdac_6.xi7.
                                            inv_bhv            1.00 
      932 xsar.xc_array_n.xsa_dac.xswdac_6.xi3.
                                            inv_bhv            1.00 
      933 xsar.xc_array_n.xsa_dac.xswdac_6.xi20.
                                            inv_bhv            1.00 
      934 xsar.xc_array_n.xsa_dac.xswdac_6.xi1.
                                            inv_bhv            1.00 
      935 xsar.xc_array_n.xsa_dac.xswdac_6.xi2.
                                            nand2_bhv          1.00 
      936 xsar.xc_array_n.xsa_dac.xswdac_6.xi19.
                                            nand2_bhv          1.00 
      937 xsar.xc_array_n.xsa_dac.xswdac_6.xswp.
                                            tgb                1.00 
      938 xsar.xc_array_n.xsa_dac.xswdac_6.xswn.
                                            tgb                1.00 
      939 xsar.xc_array_n.xsa_dac.xswdac_6.xswin.
                                            tgb                1.00 
      940 xsar.xc_array_n.xsa_dac.xswdac_7.xi7.
                                            inv_bhv            1.00 
      941 xsar.xc_array_n.xsa_dac.xswdac_7.xi3.
                                            inv_bhv            1.00 
      942 xsar.xc_array_n.xsa_dac.xswdac_7.xi20.
                                            inv_bhv            1.00 
      943 xsar.xc_array_n.xsa_dac.xswdac_7.xi1.
                                            inv_bhv            1.00 
      944 xsar.xc_array_n.xsa_dac.xswdac_7.xi2.
                                            nand2_bhv          1.00 
      945 xsar.xc_array_n.xsa_dac.xswdac_7.xi19.
                                            nand2_bhv          1.00 
      946 xsar.xc_array_n.xsa_dac.xswdac_7.xswp.
                                            tgb                1.00 
      947 xsar.xc_array_n.xsa_dac.xswdac_7.xswn.
                                            tgb                1.00 
      948 xsar.xc_array_n.xsa_dac.xswdac_7.xswin.
                                            tgb                1.00 
      949 xsar.xc_array_n.xsa_dac.xi1.xp1.
                                            pmos_b             1.00 
      950 xsar.xc_array_n.xsa_dac.xi1.xn1.
                                            nmos_b             1.00 
      951 xsar.xsa_logic.xdata3.xi1.xp1.  pmos_b             1.00 
      952 xsar.xsa_logic.xdata3.xi1.xn1.  nmos_b             1.00 
      953 xsar.xsa_logic.xdata3.xi42.xn1. nmos_b             1.00 
      954 xsar.xsa_logic.xdata3.xi42.xi9. nmos_b             1.00 
      955 xsar.xsa_logic.xdata3.xi42.xp1. pmos_b             1.00 
      956 xsar.xsa_logic.xdata3.xi42.xi10.
                                            pmos_b             1.00 
      957 xsar.xsa_logic.xdata3.xi43.xn1. nmos_b             1.00 
      958 xsar.xsa_logic.xdata3.xi43.xi9. nmos_b             1.00 
      959 xsar.xsa_logic.xdata3.xi43.xp1. pmos_b             1.00 
      960 xsar.xsa_logic.xdata3.xi43.xi10.
                                            pmos_b             1.00 
      961 xsar.xsa_logic.xdata3.xi31.xn1. nmos_b             1.00 
      962 xsar.xsa_logic.xdata3.xi31.xi9. nmos_b             1.00 
      963 xsar.xsa_logic.xdata3.xi31.xp1. pmos_b             1.00 
      964 xsar.xsa_logic.xdata3.xi31.xi10.
                                            pmos_b             1.00 
      965 xsar.xsa_logic.xdata3.xi37.xn1. nmos_b             1.00 
      966 xsar.xsa_logic.xdata3.xi37.xi9. nmos_b             1.00 
      967 xsar.xsa_logic.xdata3.xi37.xp1. pmos_b             1.00 
      968 xsar.xsa_logic.xdata3.xi37.xi10.
                                            pmos_b             1.00 
      969 xsar.xsa_logic.xdata2.xi1.xp1.  pmos_b             1.00 
      970 xsar.xsa_logic.xdata2.xi1.xn1.  nmos_b             1.00 
      971 xsar.xsa_logic.xdata2.xi42.xn1. nmos_b             1.00 
      972 xsar.xsa_logic.xdata2.xi42.xi9. nmos_b             1.00 
      973 xsar.xsa_logic.xdata2.xi42.xp1. pmos_b             1.00 
      974 xsar.xsa_logic.xdata2.xi42.xi10.
                                            pmos_b             1.00 
      975 xsar.xsa_logic.xdata2.xi43.xn1. nmos_b             1.00 
      976 xsar.xsa_logic.xdata2.xi43.xi9. nmos_b             1.00 
      977 xsar.xsa_logic.xdata2.xi43.xp1. pmos_b             1.00 
      978 xsar.xsa_logic.xdata2.xi43.xi10.
                                            pmos_b             1.00 
      979 xsar.xsa_logic.xdata2.xi31.xn1. nmos_b             1.00 
      980 xsar.xsa_logic.xdata2.xi31.xi9. nmos_b             1.00 
      981 xsar.xsa_logic.xdata2.xi31.xp1. pmos_b             1.00 
      982 xsar.xsa_logic.xdata2.xi31.xi10.
                                            pmos_b             1.00 
      983 xsar.xsa_logic.xdata2.xi37.xn1. nmos_b             1.00 
      984 xsar.xsa_logic.xdata2.xi37.xi9. nmos_b             1.00 
      985 xsar.xsa_logic.xdata2.xi37.xp1. pmos_b             1.00 
      986 xsar.xsa_logic.xdata2.xi37.xi10.
                                            pmos_b             1.00 
      987 xsar.xsa_logic.xdata1.xi1.xp1.  pmos_b             1.00 
      988 xsar.xsa_logic.xdata1.xi1.xn1.  nmos_b             1.00 
      989 xsar.xsa_logic.xdata1.xi42.xn1. nmos_b             1.00 
      990 xsar.xsa_logic.xdata1.xi42.xi9. nmos_b             1.00 
      991 xsar.xsa_logic.xdata1.xi42.xp1. pmos_b             1.00 
      992 xsar.xsa_logic.xdata1.xi42.xi10.
                                            pmos_b             1.00 
      993 xsar.xsa_logic.xdata1.xi43.xn1. nmos_b             1.00 
      994 xsar.xsa_logic.xdata1.xi43.xi9. nmos_b             1.00 
      995 xsar.xsa_logic.xdata1.xi43.xp1. pmos_b             1.00 
      996 xsar.xsa_logic.xdata1.xi43.xi10.
                                            pmos_b             1.00 
      997 xsar.xsa_logic.xdata1.xi31.xn1. nmos_b             1.00 
      998 xsar.xsa_logic.xdata1.xi31.xi9. nmos_b             1.00 
      999 xsar.xsa_logic.xdata1.xi31.xp1. pmos_b             1.00 
     1000 xsar.xsa_logic.xdata1.xi31.xi10.
                                            pmos_b             1.00 
     1001 xsar.xsa_logic.xdata1.xi37.xn1. nmos_b             1.00 
     1002 xsar.xsa_logic.xdata1.xi37.xi9. nmos_b             1.00 
     1003 xsar.xsa_logic.xdata1.xi37.xp1. pmos_b             1.00 
     1004 xsar.xsa_logic.xdata1.xi37.xi10.
                                            pmos_b             1.00 
     1005 xsar.xsa_logic.xdata0.xi1.xp1.  pmos_b             1.00 
     1006 xsar.xsa_logic.xdata0.xi1.xn1.  nmos_b             1.00 
     1007 xsar.xsa_logic.xdata0.xi42.xn1. nmos_b             1.00 
     1008 xsar.xsa_logic.xdata0.xi42.xi9. nmos_b             1.00 
[...]
 +   4:dacn    = 899.1009u    4:dacp    = 899.1009u    4:opin    = 449.7751u
 +   4:opip    = 449.7751u    5:amp_n   = 900.0000m    5:amp_p   = 900.0000m
 +   5:d_b     =  18.0000f    5:net0107 = 899.1009u    5:net0137 = 899.1009u
 +   5:net0155 = 561.9380u    5:net0161 =   1.2363m    5:net082  = 899.1009u
 +   5:net088  = 899.1009u    5:opin    = 899.1009u    5:opip    = 899.1009u
 +   6:amp_n   = 900.0000m    6:amp_p   = 900.0000m    6:d_b     =  18.0000f
 +   6:net0107 = 899.1009u    6:net0137 = 899.1009u    6:net0155 = 786.7132u
 +   6:net0161 =   1.0115m    6:net082  = 899.1009u    6:net088  = 899.1009u
 +   6:opin    = 899.1009u    6:opip    = 899.1009u    7:amp_n   = 900.0000m
 +   7:amp_p   = 900.0000m    7:d_b     =  18.0000f    7:net0107 = 899.1009u
 +   7:net0137 = 899.1009u    7:net0155 =   1.0115m    7:net0161 = 786.7132u
 +   7:net082  = 899.1009u    7:net088  = 899.1009u    7:opin    = 899.1009u
 +   7:opip    = 899.1009u    8:amp_n   = 900.0000m    8:amp_p   = 900.0000m
 +   8:d_b     =  18.0000f    8:net0107 = 899.1009u    8:net0137 = 899.1009u
 +   8:net0155 =   1.2363m    8:net0161 = 561.9380u    8:net082  = 899.1009u
 +   8:net088  = 899.1009u    8:opin    = 899.1009u    8:opip    = 899.1009u
 +  10:d_b     =  18.0000f   10:net43   =   1.8000    10:net48   =   1.8000 
 +  11:d_b     =  18.0000f   11:net43   =   1.8000    11:net48   =   1.8000 
 +  12:d_b     =  18.0000f   12:net43   =   1.8000    12:net48   =   1.8000 
 +  13:d_b     =  18.0000f   13:net43   =   1.8000    13:net48   =   1.8000 
 +  14:vout1   =   0.        15:dac_0   =   1.8000    15:dac_1   =   1.8000 
 +  15:dac_2   =   1.8000    15:dac_3   =   1.8000    15:dac_4   =   1.8000 
 +  15:dac_5   =   1.8000    15:dac_6   =   1.8000    15:dac_7   =  36.0000f
 +  15:net023  = 898.2031n   15:net30   = 899.1013u   16:dac_0   = 905.5864m
 +  16:dac_1   = 902.2681m   16:dac_2   = 902.2681m   16:dac_3   = 902.2681m
 +  16:dac_4   = 902.2681m   16:dac_5   = 902.2681m   16:dac_6   = 903.5969m
 +  16:dac_7   =   1.8000    16:net023  = 898.2031n   16:net30   = 899.1013u
 +  17:net383  =   1.8000    17:q0      = 900.0316m   17:q1      = 899.8071m
 +  17:q2      = 899.8071m   17:q3      = 899.8071m   17:q4      = 899.8071m
 +  17:q5      = 899.8071m   17:q6      = 899.8074m   17:q7      =  28.7923f
 +  17:qb0     = 898.5956m   17:qb1     = 898.9996m   17:qb2     = 898.9996m
 +  17:qb3     = 898.9996m   17:qb4     = 898.9996m   17:qb5     = 898.9996m
 +  17:qb6     = 898.9989m   17:qb7     =   1.8000    18:clkb    =   1.8000 
 +  18:dff1    =   1.8000    18:dff2    =  18.0000f   18:dff3    =  18.0000f
 +  18:net41   =   1.8000    18:net54   =   1.8000    18:net69   =  18.0000f
 +  19:clkb    =   1.8000    19:dff1    =  18.0000f   19:dff2    =   1.8000 
 +  19:dff3    =  54.0000f   19:net41   =  18.0000f   19:net54   =   1.8000 
 +  19:net69   =   1.8000    20:clkb    =   1.8000    20:dff1    =  18.0000f
 +  20:dff2    =   1.8000    20:dff3    =  54.0000f   20:net41   =  18.0000f
 +  20:net54   =   1.8000    20:net69   =   1.8000    21:clkb    =   1.8000 
 +  21:dff1    =  18.0000f   21:dff2    =   1.8000    21:dff3    =  54.0000f
 +  21:net41   =  18.0000f   21:net54   =   1.8000    21:net69   =   1.8000 
 +  22:clkb    =   1.8000    22:dff1    =  18.0000f   22:dff2    =   1.8000 
 +  22:dff3    =  54.0000f   22:net41   =  18.0000f   22:net54   =   1.8000 
 +  22:net69   =   1.8000    23:clkb    =   1.8000    23:dff1    =  18.0000f
 +  23:dff2    =   1.8000    23:dff3    =  54.0000f   23:net41   =  18.0000f
 +  23:net54   =   1.8000    23:net69   =   1.8000    24:clkb    =   1.8000 
 +  24:dff1    =  18.0000f   24:dff2    =   1.8000    24:dff3    =  54.0000f
 +  24:net41   =  18.0000f   24:net54   =   1.8000    24:net69   =   1.8000 
 +  25:clkb    =   1.8000    25:dff1    =  18.0000f   25:dff2    =   1.8000 
 +  25:dff3    =  54.0000f   25:net41   =  18.0000f   25:net54   =   1.8000 
 +  25:net69   =   1.8000    26:net8    =  18.0000f   27:net23   =   1.8000 
 +  28:net23   =  18.0000f   29:net23   =   1.8000    82:vcmi    = 900.0000m
 +  99:vcmi    = 900.0000m  100:on1     =   0.       100:op1     =   0.     
 + 100:vcm1    = 900.0000m  101:net22   = 1.800e-27  102:net23   =   1.8000 
 + 117:on1     =   0.       117:op1     =   0.       117:vcm1    = 900.0000m
 + 118:net22   = 1.800e-27  119:net23   =   1.8000   134:on1     =   0.     
 + 134:op1     =   0.       134:vcm1    = 900.0000m  135:net22   = 1.800e-27
 + 136:net23   =   1.8000   151:on1     =   0.       151:op1     =   0.     
 + 151:vcm1    = 900.0000m  152:net22   = 1.800e-27  153:net23   =   1.8000 
 + 168:net23   =   1.8000   169:net23   =  18.0000f  170:net23   =  18.0000f
 + 171:net23   =  18.0000f  172:net23   =   1.8000   173:net8    = 899.1009u
 + 174:net8    =   1.8000   175:net23   =   1.8000   176:net23   =  18.0000f
 + 177:net23   =  18.0000f  178:net23   =  18.0000f  179:net23   =   1.8000 
 + 180:net8    = 899.1009u  181:net8    =   1.8000   182:net23   =   1.8000 
 + 183:net23   =  18.0000f  184:net23   =  18.0000f  185:net23   =  18.0000f
 + 186:net23   =   1.8000   187:net8    = 899.1009u  188:net8    =   1.8000 
 + 189:net23   =   1.8000   190:net23   =  18.0000f  191:net23   =  18.0000f
 + 192:net23   =  18.0000f  193:net23   =   1.8000   194:net8    = 899.1009u
 + 195:net8    =   1.8000   196:pdac_b  =   1.8000   198:pdac_b  =   1.8000 
 + 200:net23   =   1.8000   201:net16   =  36.0000f  202:net16   =   1.8000 
 + 203:net16   =   1.8000   204:net16   =   1.8000   205:net16   =   1.8000 
 + 206:net16   =   1.8000   207:net16   =   1.8000   208:net16   =   1.8000 
 + 209:net8    = 900.6775m  210:net8    =   1.8000   211:net8    =  17.9955n
 + 212:net8    = 900.6775m  213:net8    = 900.6775m  214:net8    = 900.6775m
 + 215:net8    = 900.6775m  216:net8    = 901.4046m  217:clkb    = 901.3522m
 + 217:dff1    =   1.7991   217:dff2    =  18.1822f  217:dff3    =  18.0818f
 + 217:net41   =   1.8000   217:net54   =   1.8000   217:net69   =  18.1822f
 + 218:clkb    = 901.3522m  218:dff1    =   1.7991   218:dff2    =  18.1822f
 + 218:dff3    =  18.0818f  218:net41   =   1.8000   218:net54   =   1.8000 
 + 218:net69   =  18.1822f  219:clkb    = 901.3522m  219:dff1    =   1.7991 
 + 219:dff2    =  18.1822f  219:dff3    =  18.0818f  219:net41   =   1.8000 
 + 219:net54   =   1.8000   219:net69   =  18.1822f  220:clkb    = 902.0797m
 + 220:dff1    =   1.7991   220:dff2    =  18.1821f  220:dff3    =  18.0817f
 + 220:net41   =   1.8000   220:net54   =   1.8000   220:net69   =  18.1821f
 + 221:clkb    = 901.3522m  221:dff1    =   1.7991   221:dff2    =  18.1822f
 + 221:dff3    =  18.0818f  221:net41   =   1.8000   221:net54   =   1.8000 
 + 221:net69   =  18.1822f  222:clkb    =  18.0000f  222:dff1    = 899.3583m
 + 222:dff2    = 899.3582m  222:dff3    = 899.3582m  222:net41   = 899.3583m
 + 222:net54   = 900.0316m  222:net69   = 899.3582m  223:clkb    =  18.0000f
 + 223:dff1    = 899.3583m  223:dff2    = 899.3582m  223:dff3    = 899.3582m
 + 223:net41   = 899.3583m  223:net54   = 899.8071m  223:net69   = 899.3582m
 + 224:clkb    =  18.0000f  224:dff1    = 899.3583m  224:dff2    = 899.3582m
 + 224:dff3    = 899.3582m  224:net41   = 899.3583m  224:net54   = 899.8071m
 + 224:net69   = 899.3582m  225:clkb    =  18.0000f  225:dff1    = 899.3583m
 + 225:dff2    = 899.3582m  225:dff3    = 899.3582m  225:net41   = 899.3583m
 + 225:net54   = 899.8071m  225:net69   = 899.3582m  226:clkb    =  18.0000f
 + 226:dff1    = 899.3583m  226:dff2    = 899.3582m  226:dff3    = 899.3582m
 + 226:net41   = 899.3583m  226:net54   = 899.8071m  226:net69   = 899.3582m
 + 227:clkb    =  18.0000f  227:dff1    =  54.0000f  227:dff2    =   1.8000 
 + 227:dff3    =   1.8000   227:net41   =  36.0000f  227:net54   =  18.0000f
 + 227:net69   =   1.8000   228:clkb    =  18.0000f  228:dff1    = 899.3583m
 + 228:dff2    = 899.3582m  228:dff3    = 899.3582m  228:net41   = 899.3583m
 + 228:net54   = 899.8071m  228:net69   = 899.3582m  229:clkb    = 901.3533m
 + 229:dff1    =   1.7991   229:dff2    =  18.1822f  229:dff3    =  18.0818f
 + 229:net41   =   1.8000   229:net54   =   1.8000   229:net69   =  18.1822f
 + 230:clkb    = 901.3522m  230:dff1    =   1.7991   230:dff2    =  18.1822f
 + 230:dff3    =  18.0818f  230:net41   =   1.8000   230:net54   =   1.8000 
 + 230:net69   =  18.1822f  231:clkb    =  18.0000f  231:dff1    = 899.3584m
 + 231:dff2    = 899.3581m  231:dff3    = 899.3581m  231:net41   = 899.3584m
 + 231:net54   = 899.8074m  231:net69   = 899.3581m  232:clkb    =  18.0000f
 + 232:dff1    =  18.0000f  232:dff2    =   1.8000   232:dff3    =   1.8000 
 + 232:net41   =  18.0000f  232:net54   =  26.9936f  232:net69   =   1.8000 
 + 233:net23   =   1.8000   238:net16   =   1.8000   239:net16   =  36.0000f
 + 240:net16   =  36.0000f  241:net16   =   1.8000   242:net23   =   1.8000 
 + 247:net16   =  36.0000f  248:net16   =  54.0000f  249:net16   =   1.8000 
 + 250:net16   =   1.8000   251:net23   =   1.8000   256:net16   =  36.0000f
 + 257:net16   =  54.0000f  258:net16   =   1.8000   259:net16   =   1.8000 
 + 260:net23   =   1.8000   265:net16   =  36.0000f  266:net16   =  54.0000f
 + 267:net16   =   1.8000   268:net16   =   1.8000   269:net23   =   1.8000 
 + 274:net16   =  36.0000f  275:net16   =  54.0000f  276:net16   =   1.8000 
 + 277:net16   =   1.8000   278:net23   =   1.8000   283:net16   =  36.0000f
 + 284:net16   =  54.0000f  285:net16   =   1.8000   286:net16   =   1.8000 
 + 287:net23   =   1.8000   292:net16   =  36.0000f  293:net16   =  54.0000f
 + 294:net16   =   1.8000   295:net16   =   1.8000   296:net23   =   1.8000 
 + 301:net16   =  36.0000f  302:net16   =  54.0000f  303:net16   =   1.8000 
 + 304:net16   =   1.8000   331:net275  =  18.0000f  332:vout1   =   0.     
 + 335:net275  =  18.0000f  336:vout1   =   0.       339:net275  =  18.0000f
 + 340:vout1   =   0.       343:net275  =  18.0000f  344:vout1   =   0.     
 + 419:net049  =   1.8000   419:net054  =  72.0000f  419:pvrefn  =  18.0000f
 + 419:pvrefn_b=   1.8000   419:pvrefp  =   1.8000   419:pvrefp_b=  18.0000f
 + 420:net049  =   1.8000   420:net054  =  72.0000f  420:pvrefn  =  18.0000f
 + 420:pvrefn_b=   1.8000   420:pvrefp  =   1.8000   420:pvrefp_b=  18.0000f
 + 421:net049  =   1.8000   421:net054  =  72.0000f  421:pvrefn  =  18.0000f
 + 421:pvrefn_b=   1.8000   421:pvrefp  =   1.8000   421:pvrefp_b=  18.0000f
 + 422:net049  =   1.8000   422:net054  =  72.0000f  422:pvrefn  =  18.0000f
 + 422:pvrefn_b=   1.8000   422:pvrefp  =   1.8000   422:pvrefp_b=  18.0000f
 + 423:net049  =   1.8000   423:net054  =  72.0000f  423:pvrefn  =  18.0000f
 + 423:pvrefn_b=   1.8000   423:pvrefp  =   1.8000   423:pvrefp_b=  18.0000f
 + 424:net049  =   1.8000   424:net054  =  72.0000f  424:pvrefn  =  18.0000f
 + 424:pvrefn_b=   1.8000   424:pvrefp  =   1.8000   424:pvrefp_b=  18.0000f
 + 425:net049  =   1.8000   425:net054  =  72.0000f  425:pvrefn  =  18.0000f
 + 425:pvrefn_b=   1.8000   425:pvrefp  =   1.8000   425:pvrefp_b=  18.0000f
 + 426:net049  =  72.0000f  426:net054  =   1.8000   426:pvrefn  =   1.8000 
 + 426:pvrefn_b=  18.0000f  426:pvrefp  =  18.0000f  426:pvrefp_b=   1.8000 
 + 427:net23   =   1.8000   430:net049  = 900.6428m  430:net054  = 896.7972m
 + 430:pvrefn  = 898.3928m  430:pvrefn_b= 902.4449m  430:pvrefp  = 905.3184m
 + 430:pvrefp_b= 889.9727m  431:net049  = 899.9149m  431:net054  = 898.1062m
 + 431:pvrefn  = 899.7037m  431:pvrefn_b= 900.0840m  431:pvrefp  = 902.9611m
 + 431:pvrefp_b= 894.2179m  432:net049  = 899.9149m  432:net054  = 898.1062m
 + 432:pvrefn  = 899.7037m  432:pvrefn_b= 900.0840m  432:pvrefp  = 902.9611m
 + 432:pvrefp_b= 894.2179m  433:net049  = 899.9149m  433:net054  = 898.1062m
 + 433:pvrefn  = 899.7037m  433:pvrefn_b= 900.0840m  433:pvrefp  = 902.9611m
 + 433:pvrefp_b= 894.2179m  434:net049  = 899.9149m  434:net054  = 898.1062m
 + 434:pvrefn  = 899.7037m  434:pvrefn_b= 900.0841m  434:pvrefp  = 902.9611m
 + 434:pvrefp_b= 894.2179m  435:net049  = 899.9149m  435:net054  = 898.1062m
 + 435:pvrefn  = 899.7037m  435:pvrefn_b= 900.0841m  435:pvrefp  = 902.9611m
 + 435:pvrefp_b= 894.2179m  436:net049  = 899.9160m  436:net054  = 897.2943m
 + 436:pvrefn  = 899.7016m  436:pvrefn_b= 900.0877m  436:pvrefp  = 904.4231m
 + 436:pvrefp_b= 891.5848m  437:net049  =   1.8000   437:net054  =  72.0000f
 + 437:pvrefn  =  18.0000f  437:pvrefn_b=   1.8000   437:pvrefp  =   1.8000 
 + 437:pvrefp_b=  18.0000f  438:net23   =   1.8000   507:net23   = 901.3522m
 + 512:net16   =   1.8000   513:net16   =  36.0000f  514:net16   =  36.2004f
 + 515:net16   =   1.8000   516:net23   = 901.3522m  521:net16   =   1.8000 
 + 522:net16   =  36.0000f  523:net16   =  36.2004f  524:net16   =   1.8000 
 + 525:net23   = 901.3522m  530:net16   =   1.8000   531:net16   =  36.0000f
 + 532:net16   =  36.2004f  533:net16   =   1.8000   534:net23   = 902.0797m
 + 539:net16   =   1.8000   540:net16   =  36.0000f  541:net16   =  36.2003f
 + 542:net16   =   1.8000   543:net23   = 901.3522m  548:net16   =   1.8000 
 + 549:net16   =  36.0000f  550:net16   =  36.2004f  551:net16   =   1.8000 
 + 552:net23   =  18.0000f  557:net16   = 899.3583m  558:net16   = 898.5956m
 + 559:net16   = 899.3583m  560:net16   = 900.0316m  561:net23   =  18.0000f
 + 566:net16   = 899.3583m  567:net16   = 898.9996m  568:net16   = 899.3583m
 + 569:net16   = 899.8071m  570:net23   =  18.0000f  575:net16   = 899.3583m
 + 576:net16   = 898.9996m  577:net16   = 899.3583m  578:net16   = 899.8071m
 + 579:net23   =  18.0000f  584:net16   = 899.3583m  585:net16   = 898.9996m
 + 586:net16   = 899.3583m  587:net16   = 899.8071m  588:net23   =  18.0000f
 + 593:net16   = 899.3583m  594:net16   = 898.9996m  595:net16   = 899.3583m
 + 596:net16   = 899.8071m  597:net23   =  18.0000f  602:net16   =  54.0000f
 + 603:net16   =   1.8000   604:net16   =   1.8000   605:net16   =  36.0000f
 + 606:net23   =  18.0000f  611:net16   = 899.3583m  612:net16   = 898.9996m
 + 613:net16   = 899.3583m  614:net16   = 899.8071m  615:net23   = 901.3533m
 + 620:net16   =   1.8000   621:net16   =  36.0000f  622:net16   =  36.2004f
 + 623:net16   =   1.8000   624:net23   = 901.3522m  629:net16   =   1.8000 
 + 630:net16   =  36.0000f  631:net16   =  36.2004f  632:net16   =   1.8000 
 + 633:net23   =  18.0000f  638:net16   = 899.3584m  639:net16   = 898.9989m
 + 640:net16   = 899.3581m  641:net16   = 899.8074m  642:net23   =  18.0000f
 + 647:net16   =  36.0000f  648:net16   =   1.8000   649:net16   =   1.8000 
 + 650:net16   =  44.9936f  795:net017  =   1.8000   795:net22   =  18.0000f
 + 795:net8    =   1.8000   796:net017  =   1.8000   796:net22   =  18.0000f
 + 796:net8    =   1.8000   797:net017  =   1.8000   797:net22   =  18.0000f
 + 797:net8    =   1.8000   798:net017  =   1.8000   798:net22   =  18.0000f
 + 798:net8    =   1.8000   799:net017  =   1.8000   799:net22   =  18.0000f
 + 799:net8    =   1.8000   800:net017  =   1.8000   800:net22   =  18.0000f
 + 800:net8    =   1.8000   801:net017  =   1.8000   801:net22   =  18.0000f
 + 801:net8    =   1.8000   802:net017  =   1.8000   802:net22   =  18.0000f
 + 802:net8    =   1.8000   803:net23   =   1.8000   804:net23   =  18.0000f
 + 805:net23   =   1.8000   806:net23   =  18.0000f  807:net8    =  18.0000f
 + 808:net8    =  36.0000f  812:net23   =   1.8000   813:net23   =  18.0000f
 + 814:net23   =   1.8000   815:net23   =  18.0000f  816:net8    =  18.0000f
 + 817:net8    =  36.0000f  821:net23   =   1.8000   822:net23   =  18.0000f
 + 823:net23   =   1.8000   824:net23   =  18.0000f  825:net8    =  18.0000f
 + 826:net8    =  36.0000f  830:net23   =   1.8000   831:net23   =  18.0000f
 + 832:net23   =   1.8000   833:net23   =  18.0000f  834:net8    =  18.0000f
 + 835:net8    =  36.0000f  839:net23   =   1.8000   840:net23   =  18.0000f
 + 841:net23   =   1.8000   842:net23   =  18.0000f  843:net8    =  18.0000f
 + 844:net8    =  36.0000f  848:net23   =   1.8000   849:net23   =  18.0000f
 + 850:net23   =   1.8000   851:net23   =  18.0000f  852:net8    =  18.0000f
 + 853:net8    =  36.0000f  857:net23   =   1.8000   858:net23   =  18.0000f
 + 859:net23   =   1.8000   860:net23   =  18.0000f  861:net8    =  18.0000f
 + 862:net8    =  36.0000f  866:net23   =  18.0000f  867:net23   =   1.8000 
 + 868:net23   =  18.0000f  869:net23   =   1.8000   870:net8    =  36.0000f
 + 871:net8    =  18.0000f  877:net23   = 902.4449m  878:net23   = 889.9727m
 + 879:net23   = 905.3184m  880:net23   = 898.3928m  881:net8    =  17.9955n
 + 882:net8    =  17.9955n  886:net23   = 900.0840m  887:net23   = 894.2179m
 + 888:net23   = 902.9611m  889:net23   = 899.7037m  890:net8    =  17.9955n
 + 891:net8    =  17.9955n  895:net23   = 900.0840m  896:net23   = 894.2179m
 + 897:net23   = 902.9611m  898:net23   = 899.7037m  899:net8    =  17.9955n
 + 900:net8    =  17.9955n  904:net23   = 900.0840m  905:net23   = 894.2179m
 + 906:net23   = 902.9611m  907:net23   = 899.7037m  908:net8    =  17.9955n
 + 909:net8    =  17.9955n  913:net23   = 900.0841m  914:net23   = 894.2179m
 + 915:net23   = 902.9611m  916:net23   = 899.7037m  917:net8    =  17.9955n
 + 918:net8    =  17.9955n  922:net23   = 900.0841m  923:net23   = 894.2179m
 + 924:net23   = 902.9611m  925:net23   = 899.7037m  926:net8    =  17.9955n
 + 927:net8    =  17.9955n  931:net23   = 900.0877m  932:net23   = 891.5848m
 + 933:net23   = 904.4231m  934:net23   = 899.7016m  935:net8    =  17.9955n
 + 936:net8    =  17.9955n  940:net23   =   1.8000   941:net23   =  18.0000f
 + 942:net23   =   1.8000   943:net23   =  18.0000f  944:net8    =  18.0000f
 + 945:net8    =  36.0000f 1239:net23   =  18.0000f 1240:net23   =   1.8000 
 +1243:net23   =  18.0000f 1244:net23   =   1.8000  1247:net23   =  18.0000f
 +1248:net23   =   1.8000  1251:net23   =  18.0000f 1252:net23   =   1.8000 
 +1255:net23   =  18.0000f 1256:net23   =   1.8000  1259:net23   =  18.0000f
 +1260:net23   =   1.8000  1263:net23   =  18.0000f 1264:net23   =   1.8000 
 +1267:net23   =  18.0000f 1268:net23   =   1.8000 


          ***** job concluded
 ******  
 *behavior simulation

 ****** job statistics summary tnom=  25.000 temp=  27.000 ******
  
 ******  Machine Information  ******
 CPU:
 model name	: Intel(R) Xeon(R) Silver 4110 CPU @ 2.10GHz
 cpu MHz	: 2100.000
  
 OS:
 Linux version 3.10.0-957.el7.x86_64 (mockbuild@kbuilder.bsys.centos.org) (gcc version 4.8.5 20150623 (Red Hat 4.8.5-36) (GCC) ) #1 SMP Thu Nov 8 23:39:32 UTC 2018


  ******  HSPICE Threads Information  ******

  Command Line Threads Count :     1
  Available CPU Count        :    32
  Actual Threads Count       :     1


  ******  Circuit Statistics  ******
  # nodes       =     861 # elements   =    5372
  # resistors   =    2597 # capacitors =    1541 # inductors   =       0
  # mutual_inds =       0 # vccs       =    1188 # vcvs        =      24
  # cccs        =       0 # ccvs       =       0 # volt_srcs   =      22
  # curr_srcs   =       0 # diodes     =       0 # bjts        =       0
  # jfets       =       0 # mosfets    =       0 # U elements  =       0
  # T elements  =       0 # W elements =       0 # B elements  =       0
  # S elements  =       0 # P elements =       0 # va device   =       0
  # vector_srcs =       0 # N elements =       0


  ******  Runtime Statistics (seconds)  ******

  analysis           time    # points   tot. iter  conv.iter
  op point           0.04           1          23
  transient       4071.82        1603    10604975     3572749 rev=    196208
  readin             0.04
  errchk             0.08
  setup              0.02
  output             0.00


           peak memory used        329.53 megabytes
           total cpu time         4072.00 seconds
           total elapsed time     4096.49 seconds
           job started at     09:02:39 09/10/2019
           job ended   at     10:10:56 09/10/2019



>info:         ***** hspice job concluded
 lic: Release hspice token(s) 
 lic: total license checkout elapse time:        0.29(s)
