Using: /usr/cad/synopsys/hspice/cur/hspice/linux64/hspice bhv_v4_2.sp
 ****** HSPICE -- O-2018.09 linux64 (Aug 26 2018) ******                        
  Copyright (c) 1986 - 2019 by Synopsys, Inc. All Rights Reserved.              
  This software and the associated documentation are proprietary
  to Synopsys, Inc. This software may only be used in accordance
  with the terms and conditions of a written license agreement with
  Synopsys, Inc. All other use, reproduction, or distribution of
  this software is strictly prohibited.
  Input File: bhv_v4_2.sp                                                       
  Command line options: /usr/cad/synopsys/hspice/cur/hspice/linux64/hspice bhv_v4_2.sp
 lic:  
 lic: FLEXlm: SDK_11.6.9.6 
 lic: USER:   ychuang              HOSTNAME: adc 
 lic: HOSTID: "b4969141dd1f"       PID:      111884 
 lic: Using FLEXlm license file: 
 lic: 26585@lsnctu 
 lic: Checkout 1 hspice 
 lic: License/Maintenance for hspice will expire on 14-may-2022/2018.09 
 lic: 139(in_use)/190(total) FLOATING license(s) on SERVER 26585@lsnctu 
 lic:   
  **warning** (bhv_v4_2.sp:113) Unrecognized output type for xsar.v in .print or .probe; The line is ignored.
1****** HSPICE -- O-2018.09 linux64 (Aug 26 2018) ******                        
 ******  
 *behavior simulation

 ****** circuit name directory
 circuit number to circuit name directory
   number circuitname                     definition         multiplier
        0 main circuit
        1 xsar.                           adc_sar_diff_8bit_v4_monotonic_v2_two_stage
                                                                 1.00 
        2 xds.                            adc_mod2_bit1_ff_v2_8bit_sar_in
                                                                 1.00 
        3 xsar.xc_array_p.                sa_8bit_c_array_with_dac_monotonic_v2_two_stage
                                                                 1.00 
        4 xsar.xc_array_n.                sa_8bit_c_array_with_dac_monotonic_v2_two_stage
                                                                 1.00 
        5 xsar.xcmp.                      vcvs_cmp           1.00 
        6 xsar.xsa_logic.                 sa_logic_8bit_monotonic
                                                                 1.00 
        7 xsar.xdffout_7.                 dff_set_rst_schematic
                                                                 1.00 
        8 xsar.xdffout_6.                 dff_set_rst_schematic
                                                                 1.00 
        9 xsar.xdffout_5.                 dff_set_rst_schematic
                                                                 1.00 
       10 xsar.xdffout_4.                 dff_set_rst_schematic
                                                                 1.00 
       11 xsar.xdffout_3.                 dff_set_rst_schematic
                                                                 1.00 
       12 xsar.xdffout_2.                 dff_set_rst_schematic
                                                                 1.00 
       13 xsar.xdffout_1.                 dff_set_rst_schematic
                                                                 1.00 
       14 xsar.xdffout_0.                 dff_set_rst_schematic
                                                                 1.00 
       15 xsar.xi7.                       nand2_bhv          1.00 
       16 xsar.xi28.                      inv_bhv            1.00 
       17 xsar.xi6.                       inv_bhv            1.00 
       18 xsar.xi5.                       inv_bhv            1.00 
       19 xds.xint1.                      int1_with_1b_dac_v2_8bit_sar_in
                                                                 1.00 
       20 xds.xint2.                      int2               1.00 
       21 xds.xquantizer.                 adder_cmp_1b_ciff2_v2_no_scaling
                                                                 1.00 
       22 xds.xclk_fb.                    clk_fb_1bit        1.00 
       23 xsar.xc_array_p.xsa_dac.        sa_dac_8bit        1.00 
       24 xsar.xc_array_p.xswvcmp.        tgb                1.00 
       25 xsar.xc_array_n.xsa_dac.        sa_dac_8bit        1.00 
       26 xsar.xc_array_n.xswvcmp.        tgb                1.00 
       27 xsar.xsa_logic.xi36.            inv_bhv            1.00 
       28 xsar.xsa_logic.xi19.            nor2_bhv           1.00 
       29 xsar.xsa_logic.xi23.            nor2_bhv           1.00 
       30 xsar.xsa_logic.xi22.            nor2_bhv           1.00 
       31 xsar.xsa_logic.xi26.            nor2_bhv           1.00 
       32 xsar.xsa_logic.xi27.            nor2_bhv           1.00 
       33 xsar.xsa_logic.xi29.            nor2_bhv           1.00 
       34 xsar.xsa_logic.xi32.            nor2_bhv           1.00 
       35 xsar.xsa_logic.xi33.            nor2_bhv           1.00 
       36 xsar.xsa_logic.xi24.            nand2_bhv          1.00 
       37 xsar.xsa_logic.xi20.            nand2_bhv          1.00 
       38 xsar.xsa_logic.xi21.            nand2_bhv          1.00 
       39 xsar.xsa_logic.xi25.            nand2_bhv          1.00 
       40 xsar.xsa_logic.xi28.            nand2_bhv          1.00 
       41 xsar.xsa_logic.xi30.            nand2_bhv          1.00 
       42 xsar.xsa_logic.xi31.            nand2_bhv          1.00 
       43 xsar.xsa_logic.xi34.            nand2_bhv          1.00 
       44 xsar.xsa_logic.xdata3.          dff_set_rst        1.00 
       45 xsar.xsa_logic.xdata2.          dff_set_rst        1.00 
       46 xsar.xsa_logic.xdata1.          dff_set_rst        1.00 
       47 xsar.xsa_logic.xdata0.          dff_set_rst        1.00 
       48 xsar.xsa_logic.xdata5.          dff_set_rst        1.00 
       49 xsar.xsa_logic.xrsh0.           dff_set_rst        1.00 
       50 xsar.xsa_logic.xrsh3.           dff_set_rst        1.00 
       51 xsar.xsa_logic.xrsh2.           dff_set_rst        1.00 
       52 xsar.xsa_logic.xrsh1.           dff_set_rst        1.00 
       53 xsar.xsa_logic.xrsh4.           dff_set_rst        1.00 
       54 xsar.xsa_logic.xdata7.          dff_set_rst        1.00 
       55 xsar.xsa_logic.xrsh5.           dff_set_rst        1.00 
       56 xsar.xsa_logic.xdata6.          dff_set_rst        1.00 
       57 xsar.xsa_logic.xdata4.          dff_set_rst        1.00 
       58 xsar.xsa_logic.xrsh6.           dff_set_rst        1.00 
       59 xsar.xsa_logic.xrsh7.           dff_set_rst        1.00 
       60 xsar.xdffout_7.xi1.             inv_bhv            1.00 
       61 xsar.xdffout_7.xi40.            tgb                1.00 
       62 xsar.xdffout_7.xi34.            tgb                1.00 
       63 xsar.xdffout_7.xi41.            tgb                1.00 
       64 xsar.xdffout_7.xsw1.            tgb                1.00 
       65 xsar.xdffout_7.xi42.            nor2_bhv           1.00 
       66 xsar.xdffout_7.xi43.            nor2_bhv           1.00 
       67 xsar.xdffout_7.xi31.            nor2_bhv           1.00 
       68 xsar.xdffout_7.xi37.            nor2_bhv           1.00 
       69 xsar.xdffout_6.xi1.             inv_bhv            1.00 
       70 xsar.xdffout_6.xi40.            tgb                1.00 
       71 xsar.xdffout_6.xi34.            tgb                1.00 
       72 xsar.xdffout_6.xi41.            tgb                1.00 
       73 xsar.xdffout_6.xsw1.            tgb                1.00 
       74 xsar.xdffout_6.xi42.            nor2_bhv           1.00 
       75 xsar.xdffout_6.xi43.            nor2_bhv           1.00 
       76 xsar.xdffout_6.xi31.            nor2_bhv           1.00 
       77 xsar.xdffout_6.xi37.            nor2_bhv           1.00 
       78 xsar.xdffout_5.xi1.             inv_bhv            1.00 
       79 xsar.xdffout_5.xi40.            tgb                1.00 
       80 xsar.xdffout_5.xi34.            tgb                1.00 
       81 xsar.xdffout_5.xi41.            tgb                1.00 
       82 xsar.xdffout_5.xsw1.            tgb                1.00 
       83 xsar.xdffout_5.xi42.            nor2_bhv           1.00 
       84 xsar.xdffout_5.xi43.            nor2_bhv           1.00 
       85 xsar.xdffout_5.xi31.            nor2_bhv           1.00 
       86 xsar.xdffout_5.xi37.            nor2_bhv           1.00 
       87 xsar.xdffout_4.xi1.             inv_bhv            1.00 
       88 xsar.xdffout_4.xi40.            tgb                1.00 
       89 xsar.xdffout_4.xi34.            tgb                1.00 
       90 xsar.xdffout_4.xi41.            tgb                1.00 
       91 xsar.xdffout_4.xsw1.            tgb                1.00 
       92 xsar.xdffout_4.xi42.            nor2_bhv           1.00 
       93 xsar.xdffout_4.xi43.            nor2_bhv           1.00 
       94 xsar.xdffout_4.xi31.            nor2_bhv           1.00 
       95 xsar.xdffout_4.xi37.            nor2_bhv           1.00 
       96 xsar.xdffout_3.xi1.             inv_bhv            1.00 
       97 xsar.xdffout_3.xi40.            tgb                1.00 
       98 xsar.xdffout_3.xi34.            tgb                1.00 
       99 xsar.xdffout_3.xi41.            tgb                1.00 
      100 xsar.xdffout_3.xsw1.            tgb                1.00 
      101 xsar.xdffout_3.xi42.            nor2_bhv           1.00 
      102 xsar.xdffout_3.xi43.            nor2_bhv           1.00 
      103 xsar.xdffout_3.xi31.            nor2_bhv           1.00 
      104 xsar.xdffout_3.xi37.            nor2_bhv           1.00 
      105 xsar.xdffout_2.xi1.             inv_bhv            1.00 
      106 xsar.xdffout_2.xi40.            tgb                1.00 
      107 xsar.xdffout_2.xi34.            tgb                1.00 
      108 xsar.xdffout_2.xi41.            tgb                1.00 
      109 xsar.xdffout_2.xsw1.            tgb                1.00 
      110 xsar.xdffout_2.xi42.            nor2_bhv           1.00 
      111 xsar.xdffout_2.xi43.            nor2_bhv           1.00 
      112 xsar.xdffout_2.xi31.            nor2_bhv           1.00 
      113 xsar.xdffout_2.xi37.            nor2_bhv           1.00 
      114 xsar.xdffout_1.xi1.             inv_bhv            1.00 
      115 xsar.xdffout_1.xi40.            tgb                1.00 
      116 xsar.xdffout_1.xi34.            tgb                1.00 
      117 xsar.xdffout_1.xi41.            tgb                1.00 
      118 xsar.xdffout_1.xsw1.            tgb                1.00 
      119 xsar.xdffout_1.xi42.            nor2_bhv           1.00 
      120 xsar.xdffout_1.xi43.            nor2_bhv           1.00 
      121 xsar.xdffout_1.xi31.            nor2_bhv           1.00 
      122 xsar.xdffout_1.xi37.            nor2_bhv           1.00 
      123 xsar.xdffout_0.xi1.             inv_bhv            1.00 
      124 xsar.xdffout_0.xi40.            tgb                1.00 
      125 xsar.xdffout_0.xi34.            tgb                1.00 
      126 xsar.xdffout_0.xi41.            tgb                1.00 
      127 xsar.xdffout_0.xsw1.            tgb                1.00 
      128 xsar.xdffout_0.xi42.            nor2_bhv           1.00 
      129 xsar.xdffout_0.xi43.            nor2_bhv           1.00 
      130 xsar.xdffout_0.xi31.            nor2_bhv           1.00 
      131 xsar.xdffout_0.xi37.            nor2_bhv           1.00 
      132 xsar.xi7.xn1.                   nmos_b             1.00 
      133 xsar.xi7.xi9.                   nmos_b             1.00 
      134 xsar.xi7.xp1.                   pmos_b             1.00 
      135 xsar.xi7.xi10.                  pmos_b             1.00 
      136 xsar.xi28.xp1.                  pmos_b             1.00 
      137 xsar.xi28.xn1.                  nmos_b             1.00 
      138 xsar.xi6.xp1.                   pmos_b             1.00 
      139 xsar.xi6.xn1.                   nmos_b             1.00 
      140 xsar.xi5.xp1.                   pmos_b             1.00 
      141 xsar.xi5.xn1.                   nmos_b             1.00 
      142 xds.xint1.xcarrayn.             carray_8bit_sar_in
                                                                 1.00 
      143 xds.xint1.xcarrayp.             carray_8bit_sar_in
                                                                 1.00 
      144 xds.xint1.xdac.                 dac_int_1bit       1.00 
      145 xds.xint1.xsw5_0.               tgb                1.00 
      146 xds.xint1.xsw5_1.               tgb                1.00 
      147 xds.xint1.xsw5_2.               tgb                1.00 
      148 xds.xint1.xsw5_3.               tgb                1.00 
      149 xds.xint1.xsw5_4.               tgb                1.00 
      150 xds.xint1.xsw5_5.               tgb                1.00 
      151 xds.xint1.xsw5_6.               tgb                1.00 
      152 xds.xint1.xsw5_7.               tgb                1.00 
      153 xds.xint1.xsw_sar_inn_0.        tgb                1.00 
      154 xds.xint1.xsw_sar_inn_1.        tgb                1.00 
      155 xds.xint1.xsw_sar_inn_2.        tgb                1.00 
      156 xds.xint1.xsw_sar_inn_3.        tgb                1.00 
      157 xds.xint1.xsw_sar_inn_4.        tgb                1.00 
      158 xds.xint1.xsw_sar_inn_5.        tgb                1.00 
      159 xds.xint1.xsw_sar_inn_6.        tgb                1.00 
      160 xds.xint1.xsw_sar_inn_7.        tgb                1.00 
      161 xds.xint1.xsw3.                 tgb                1.00 
      162 xds.xint1.xsw7.                 tgb                1.00 
      163 xds.xint1.xsw4_0.               tgb                1.00 
      164 xds.xint1.xsw4_1.               tgb                1.00 
      165 xds.xint1.xsw4_2.               tgb                1.00 
      166 xds.xint1.xsw4_3.               tgb                1.00 
      167 xds.xint1.xsw4_4.               tgb                1.00 
      168 xds.xint1.xsw4_5.               tgb                1.00 
      169 xds.xint1.xsw4_6.               tgb                1.00 
      170 xds.xint1.xsw4_7.               tgb                1.00 
      171 xds.xint1.xsw_sar_inp_0.        tgb                1.00 
      172 xds.xint1.xsw_sar_inp_1.        tgb                1.00 
      173 xds.xint1.xsw_sar_inp_2.        tgb                1.00 
      174 xds.xint1.xsw_sar_inp_3.        tgb                1.00 
      175 xds.xint1.xsw_sar_inp_4.        tgb                1.00 
      176 xds.xint1.xsw_sar_inp_5.        tgb                1.00 
      177 xds.xint1.xsw_sar_inp_6.        tgb                1.00 
      178 xds.xint1.xsw_sar_inp_7.        tgb                1.00 
      179 xds.xint1.xswinn.               tgb                1.00 
      180 xds.xint1.xsw2.                 tgb                1.00 
      181 xds.xint1.xsw6.                 tgb                1.00 
      182 xds.xint1.xi12.                 tgb                1.00 
      183 xds.xint1.xi13.                 tgb                1.00 
      184 xds.xint1.xswinp.               tgb                1.00 
      185 xds.xint1.xop.                  fdopb              1.00 
      186 xds.xint2.xi65.                 tgb                1.00 
      187 xds.xint2.xsw7.                 tgb                1.00 
      188 xds.xint2.xsw3.                 tgb                1.00 
      189 xds.xint2.xswinn.               tgb                1.00 
      190 xds.xint2.xswinp.               tgb                1.00 
      191 xds.xint2.xsw2.                 tgb                1.00 
      192 xds.xint2.xsw6.                 tgb                1.00 
      193 xds.xint2.xi6.                  tgb                1.00 
      194 xds.xint2.xi9.                  tgb                1.00 
      195 xds.xint2.xi66.                 tgb                1.00 
      196 xds.xint2.xop.                  fdopb              1.00 
      197 xds.xquantizer.xpreamp_bhv.     preamp_cmp_b       1.00 
      198 xds.xquantizer.xcmp3.           cmp_clk            1.00 
      199 xds.xquantizer.xi1.             inv_bhv            1.00 
      200 xds.xquantizer.xi52.            tgb                1.00 
      201 xds.xquantizer.xi63.            tgb                1.00 
      202 xds.xquantizer.xi62.            tgb                1.00 
      203 xds.xquantizer.xi55.            tgb                1.00 
      204 xds.xquantizer.xi56.            tgb                1.00 
      205 xds.xquantizer.xi65.            tgb                1.00 
      206 xds.xquantizer.xi64.            tgb                1.00 
      207 xds.xquantizer.xi60.            tgb                1.00 
      208 xds.xquantizer.xi59.            tgb                1.00 
      209 xds.xquantizer.xi13.            tgb                1.00 
      210 xds.xquantizer.xi9.             tgb                1.00 
      211 xds.xquantizer.xsw1.            tgb                1.00 
      212 xds.xquantizer.xi2.             tgb                1.00 
      213 xds.xquantizer.xsw4.            tgb                1.00 
      214 xds.xclk_fb.xi64.               inv_bhv            1.00 
      215 xds.xclk_fb.xi20.               inv_bhv            1.00 
      216 xds.xclk_fb.xi60.               inv_bhv            1.00 
      217 xds.xclk_fb.xi59.               inv_bhv            1.00 
      218 xds.xclk_fb.xi63.               inv_bhv            1.00 
      219 xds.xclk_fb.xi62.               nand2_bhv          1.00 
      220 xds.xclk_fb.xi19.               nand2_bhv          1.00 
      221 xsar.xc_array_p.xsa_dac.xswdac_0.
                                            dac_sw             1.00 
      222 xsar.xc_array_p.xsa_dac.xswdac_1.
                                            dac_sw             1.00 
      223 xsar.xc_array_p.xsa_dac.xswdac_2.
                                            dac_sw             1.00 
      224 xsar.xc_array_p.xsa_dac.xswdac_3.
                                            dac_sw             1.00 
      225 xsar.xc_array_p.xsa_dac.xswdac_4.
                                            dac_sw             1.00 
      226 xsar.xc_array_p.xsa_dac.xswdac_5.
                                            dac_sw             1.00 
      227 xsar.xc_array_p.xsa_dac.xswdac_6.
                                            dac_sw             1.00 
      228 xsar.xc_array_p.xsa_dac.xswdac_7.
                                            dac_sw             1.00 
      229 xsar.xc_array_p.xsa_dac.xi1.    inv_bhv            1.00 
      230 xsar.xc_array_p.xsa_dac.xswdac00.
                                            tgb                1.00 
      231 xsar.xc_array_p.xsa_dac.xswvin. tgb                1.00 
      232 xsar.xc_array_n.xsa_dac.xswdac_0.
                                            dac_sw             1.00 
      233 xsar.xc_array_n.xsa_dac.xswdac_1.
                                            dac_sw             1.00 
      234 xsar.xc_array_n.xsa_dac.xswdac_2.
                                            dac_sw             1.00 
      235 xsar.xc_array_n.xsa_dac.xswdac_3.
                                            dac_sw             1.00 
      236 xsar.xc_array_n.xsa_dac.xswdac_4.
                                            dac_sw             1.00 
      237 xsar.xc_array_n.xsa_dac.xswdac_5.
                                            dac_sw             1.00 
      238 xsar.xc_array_n.xsa_dac.xswdac_6.
                                            dac_sw             1.00 
      239 xsar.xc_array_n.xsa_dac.xswdac_7.
                                            dac_sw             1.00 
      240 xsar.xc_array_n.xsa_dac.xi1.    inv_bhv            1.00 
      241 xsar.xc_array_n.xsa_dac.xswdac00.
                                            tgb                1.00 
      242 xsar.xc_array_n.xsa_dac.xswvin. tgb                1.00 
      243 xsar.xsa_logic.xi36.xp1.        pmos_b             1.00 
      244 xsar.xsa_logic.xi36.xn1.        nmos_b             1.00 
      245 xsar.xsa_logic.xi19.xn1.        nmos_b             1.00 
      246 xsar.xsa_logic.xi19.xi9.        nmos_b             1.00 
      247 xsar.xsa_logic.xi19.xp1.        pmos_b             1.00 
      248 xsar.xsa_logic.xi19.xi10.       pmos_b             1.00 
      249 xsar.xsa_logic.xi23.xn1.        nmos_b             1.00 
      250 xsar.xsa_logic.xi23.xi9.        nmos_b             1.00 
      251 xsar.xsa_logic.xi23.xp1.        pmos_b             1.00 
      252 xsar.xsa_logic.xi23.xi10.       pmos_b             1.00 
      253 xsar.xsa_logic.xi22.xn1.        nmos_b             1.00 
      254 xsar.xsa_logic.xi22.xi9.        nmos_b             1.00 
      255 xsar.xsa_logic.xi22.xp1.        pmos_b             1.00 
      256 xsar.xsa_logic.xi22.xi10.       pmos_b             1.00 
      257 xsar.xsa_logic.xi26.xn1.        nmos_b             1.00 
      258 xsar.xsa_logic.xi26.xi9.        nmos_b             1.00 
      259 xsar.xsa_logic.xi26.xp1.        pmos_b             1.00 
      260 xsar.xsa_logic.xi26.xi10.       pmos_b             1.00 
      261 xsar.xsa_logic.xi27.xn1.        nmos_b             1.00 
      262 xsar.xsa_logic.xi27.xi9.        nmos_b             1.00 
      263 xsar.xsa_logic.xi27.xp1.        pmos_b             1.00 
      264 xsar.xsa_logic.xi27.xi10.       pmos_b             1.00 
      265 xsar.xsa_logic.xi29.xn1.        nmos_b             1.00 
      266 xsar.xsa_logic.xi29.xi9.        nmos_b             1.00 
      267 xsar.xsa_logic.xi29.xp1.        pmos_b             1.00 
      268 xsar.xsa_logic.xi29.xi10.       pmos_b             1.00 
      269 xsar.xsa_logic.xi32.xn1.        nmos_b             1.00 
      270 xsar.xsa_logic.xi32.xi9.        nmos_b             1.00 
      271 xsar.xsa_logic.xi32.xp1.        pmos_b             1.00 
      272 xsar.xsa_logic.xi32.xi10.       pmos_b             1.00 
      273 xsar.xsa_logic.xi33.xn1.        nmos_b             1.00 
      274 xsar.xsa_logic.xi33.xi9.        nmos_b             1.00 
      275 xsar.xsa_logic.xi33.xp1.        pmos_b             1.00 
      276 xsar.xsa_logic.xi33.xi10.       pmos_b             1.00 
      277 xsar.xsa_logic.xi24.xn1.        nmos_b             1.00 
      278 xsar.xsa_logic.xi24.xi9.        nmos_b             1.00 
      279 xsar.xsa_logic.xi24.xp1.        pmos_b             1.00 
      280 xsar.xsa_logic.xi24.xi10.       pmos_b             1.00 
      281 xsar.xsa_logic.xi20.xn1.        nmos_b             1.00 
      282 xsar.xsa_logic.xi20.xi9.        nmos_b             1.00 
      283 xsar.xsa_logic.xi20.xp1.        pmos_b             1.00 
      284 xsar.xsa_logic.xi20.xi10.       pmos_b             1.00 
      285 xsar.xsa_logic.xi21.xn1.        nmos_b             1.00 
      286 xsar.xsa_logic.xi21.xi9.        nmos_b             1.00 
      287 xsar.xsa_logic.xi21.xp1.        pmos_b             1.00 
      288 xsar.xsa_logic.xi21.xi10.       pmos_b             1.00 
      289 xsar.xsa_logic.xi25.xn1.        nmos_b             1.00 
      290 xsar.xsa_logic.xi25.xi9.        nmos_b             1.00 
      291 xsar.xsa_logic.xi25.xp1.        pmos_b             1.00 
      292 xsar.xsa_logic.xi25.xi10.       pmos_b             1.00 
      293 xsar.xsa_logic.xi28.xn1.        nmos_b             1.00 
      294 xsar.xsa_logic.xi28.xi9.        nmos_b             1.00 
      295 xsar.xsa_logic.xi28.xp1.        pmos_b             1.00 
      296 xsar.xsa_logic.xi28.xi10.       pmos_b             1.00 
      297 xsar.xsa_logic.xi30.xn1.        nmos_b             1.00 
      298 xsar.xsa_logic.xi30.xi9.        nmos_b             1.00 
      299 xsar.xsa_logic.xi30.xp1.        pmos_b             1.00 
      300 xsar.xsa_logic.xi30.xi10.       pmos_b             1.00 
      301 xsar.xsa_logic.xi31.xn1.        nmos_b             1.00 
      302 xsar.xsa_logic.xi31.xi9.        nmos_b             1.00 
      303 xsar.xsa_logic.xi31.xp1.        pmos_b             1.00 
      304 xsar.xsa_logic.xi31.xi10.       pmos_b             1.00 
      305 xsar.xsa_logic.xi34.xn1.        nmos_b             1.00 
      306 xsar.xsa_logic.xi34.xi9.        nmos_b             1.00 
      307 xsar.xsa_logic.xi34.xp1.        pmos_b             1.00 
      308 xsar.xsa_logic.xi34.xi10.       pmos_b             1.00 
      309 xsar.xsa_logic.xdata3.xi1.      inv_bhv            1.00 
      310 xsar.xsa_logic.xdata3.xi40.     tgb                1.00 
      311 xsar.xsa_logic.xdata3.xi34.     tgb                1.00 
      312 xsar.xsa_logic.xdata3.xi41.     tgb                1.00 
      313 xsar.xsa_logic.xdata3.xsw1.     tgb                1.00 
      314 xsar.xsa_logic.xdata3.xi42.     nor2_bhv           1.00 
      315 xsar.xsa_logic.xdata3.xi43.     nor2_bhv           1.00 
      316 xsar.xsa_logic.xdata3.xi31.     nor2_bhv           1.00 
      317 xsar.xsa_logic.xdata3.xi37.     nor2_bhv           1.00 
      318 xsar.xsa_logic.xdata2.xi1.      inv_bhv            1.00 
      319 xsar.xsa_logic.xdata2.xi40.     tgb                1.00 
      320 xsar.xsa_logic.xdata2.xi34.     tgb                1.00 
      321 xsar.xsa_logic.xdata2.xi41.     tgb                1.00 
      322 xsar.xsa_logic.xdata2.xsw1.     tgb                1.00 
      323 xsar.xsa_logic.xdata2.xi42.     nor2_bhv           1.00 
      324 xsar.xsa_logic.xdata2.xi43.     nor2_bhv           1.00 
      325 xsar.xsa_logic.xdata2.xi31.     nor2_bhv           1.00 
      326 xsar.xsa_logic.xdata2.xi37.     nor2_bhv           1.00 
      327 xsar.xsa_logic.xdata1.xi1.      inv_bhv            1.00 
      328 xsar.xsa_logic.xdata1.xi40.     tgb                1.00 
      329 xsar.xsa_logic.xdata1.xi34.     tgb                1.00 
      330 xsar.xsa_logic.xdata1.xi41.     tgb                1.00 
      331 xsar.xsa_logic.xdata1.xsw1.     tgb                1.00 
      332 xsar.xsa_logic.xdata1.xi42.     nor2_bhv           1.00 
      333 xsar.xsa_logic.xdata1.xi43.     nor2_bhv           1.00 
      334 xsar.xsa_logic.xdata1.xi31.     nor2_bhv           1.00 
      335 xsar.xsa_logic.xdata1.xi37.     nor2_bhv           1.00 
      336 xsar.xsa_logic.xdata0.xi1.      inv_bhv            1.00 
      337 xsar.xsa_logic.xdata0.xi40.     tgb                1.00 
      338 xsar.xsa_logic.xdata0.xi34.     tgb                1.00 
      339 xsar.xsa_logic.xdata0.xi41.     tgb                1.00 
      340 xsar.xsa_logic.xdata0.xsw1.     tgb                1.00 
      341 xsar.xsa_logic.xdata0.xi42.     nor2_bhv           1.00 
      342 xsar.xsa_logic.xdata0.xi43.     nor2_bhv           1.00 
      343 xsar.xsa_logic.xdata0.xi31.     nor2_bhv           1.00 
      344 xsar.xsa_logic.xdata0.xi37.     nor2_bhv           1.00 
      345 xsar.xsa_logic.xdata5.xi1.      inv_bhv            1.00 
      346 xsar.xsa_logic.xdata5.xi40.     tgb                1.00 
      347 xsar.xsa_logic.xdata5.xi34.     tgb                1.00 
      348 xsar.xsa_logic.xdata5.xi41.     tgb                1.00 
      349 xsar.xsa_logic.xdata5.xsw1.     tgb                1.00 
      350 xsar.xsa_logic.xdata5.xi42.     nor2_bhv           1.00 
      351 xsar.xsa_logic.xdata5.xi43.     nor2_bhv           1.00 
      352 xsar.xsa_logic.xdata5.xi31.     nor2_bhv           1.00 
      353 xsar.xsa_logic.xdata5.xi37.     nor2_bhv           1.00 
      354 xsar.xsa_logic.xrsh0.xi1.       inv_bhv            1.00 
      355 xsar.xsa_logic.xrsh0.xi40.      tgb                1.00 
      356 xsar.xsa_logic.xrsh0.xi34.      tgb                1.00 
      357 xsar.xsa_logic.xrsh0.xi41.      tgb                1.00 
      358 xsar.xsa_logic.xrsh0.xsw1.      tgb                1.00 
      359 xsar.xsa_logic.xrsh0.xi42.      nor2_bhv           1.00 
      360 xsar.xsa_logic.xrsh0.xi43.      nor2_bhv           1.00 
      361 xsar.xsa_logic.xrsh0.xi31.      nor2_bhv           1.00 
      362 xsar.xsa_logic.xrsh0.xi37.      nor2_bhv           1.00 
      363 xsar.xsa_logic.xrsh3.xi1.       inv_bhv            1.00 
      364 xsar.xsa_logic.xrsh3.xi40.      tgb                1.00 
      365 xsar.xsa_logic.xrsh3.xi34.      tgb                1.00 
      366 xsar.xsa_logic.xrsh3.xi41.      tgb                1.00 
      367 xsar.xsa_logic.xrsh3.xsw1.      tgb                1.00 
      368 xsar.xsa_logic.xrsh3.xi42.      nor2_bhv           1.00 
      369 xsar.xsa_logic.xrsh3.xi43.      nor2_bhv           1.00 
      370 xsar.xsa_logic.xrsh3.xi31.      nor2_bhv           1.00 
      371 xsar.xsa_logic.xrsh3.xi37.      nor2_bhv           1.00 
      372 xsar.xsa_logic.xrsh2.xi1.       inv_bhv            1.00 
      373 xsar.xsa_logic.xrsh2.xi40.      tgb                1.00 
      374 xsar.xsa_logic.xrsh2.xi34.      tgb                1.00 
      375 xsar.xsa_logic.xrsh2.xi41.      tgb                1.00 
      376 xsar.xsa_logic.xrsh2.xsw1.      tgb                1.00 
      377 xsar.xsa_logic.xrsh2.xi42.      nor2_bhv           1.00 
      378 xsar.xsa_logic.xrsh2.xi43.      nor2_bhv           1.00 
      379 xsar.xsa_logic.xrsh2.xi31.      nor2_bhv           1.00 
      380 xsar.xsa_logic.xrsh2.xi37.      nor2_bhv           1.00 
      381 xsar.xsa_logic.xrsh1.xi1.       inv_bhv            1.00 
      382 xsar.xsa_logic.xrsh1.xi40.      tgb                1.00 
      383 xsar.xsa_logic.xrsh1.xi34.      tgb                1.00 
      384 xsar.xsa_logic.xrsh1.xi41.      tgb                1.00 
      385 xsar.xsa_logic.xrsh1.xsw1.      tgb                1.00 
      386 xsar.xsa_logic.xrsh1.xi42.      nor2_bhv           1.00 
      387 xsar.xsa_logic.xrsh1.xi43.      nor2_bhv           1.00 
      388 xsar.xsa_logic.xrsh1.xi31.      nor2_bhv           1.00 
      389 xsar.xsa_logic.xrsh1.xi37.      nor2_bhv           1.00 
      390 xsar.xsa_logic.xrsh4.xi1.       inv_bhv            1.00 
      391 xsar.xsa_logic.xrsh4.xi40.      tgb                1.00 
      392 xsar.xsa_logic.xrsh4.xi34.      tgb                1.00 
      393 xsar.xsa_logic.xrsh4.xi41.      tgb                1.00 
      394 xsar.xsa_logic.xrsh4.xsw1.      tgb                1.00 
      395 xsar.xsa_logic.xrsh4.xi42.      nor2_bhv           1.00 
      396 xsar.xsa_logic.xrsh4.xi43.      nor2_bhv           1.00 
      397 xsar.xsa_logic.xrsh4.xi31.      nor2_bhv           1.00 
      398 xsar.xsa_logic.xrsh4.xi37.      nor2_bhv           1.00 
      399 xsar.xsa_logic.xdata7.xi1.      inv_bhv            1.00 
      400 xsar.xsa_logic.xdata7.xi40.     tgb                1.00 
      401 xsar.xsa_logic.xdata7.xi34.     tgb                1.00 
      402 xsar.xsa_logic.xdata7.xi41.     tgb                1.00 
      403 xsar.xsa_logic.xdata7.xsw1.     tgb                1.00 
      404 xsar.xsa_logic.xdata7.xi42.     nor2_bhv           1.00 
      405 xsar.xsa_logic.xdata7.xi43.     nor2_bhv           1.00 
      406 xsar.xsa_logic.xdata7.xi31.     nor2_bhv           1.00 
      407 xsar.xsa_logic.xdata7.xi37.     nor2_bhv           1.00 
      408 xsar.xsa_logic.xrsh5.xi1.       inv_bhv            1.00 
      409 xsar.xsa_logic.xrsh5.xi40.      tgb                1.00 
      410 xsar.xsa_logic.xrsh5.xi34.      tgb                1.00 
      411 xsar.xsa_logic.xrsh5.xi41.      tgb                1.00 
      412 xsar.xsa_logic.xrsh5.xsw1.      tgb                1.00 
      413 xsar.xsa_logic.xrsh5.xi42.      nor2_bhv           1.00 
      414 xsar.xsa_logic.xrsh5.xi43.      nor2_bhv           1.00 
      415 xsar.xsa_logic.xrsh5.xi31.      nor2_bhv           1.00 
      416 xsar.xsa_logic.xrsh5.xi37.      nor2_bhv           1.00 
      417 xsar.xsa_logic.xdata6.xi1.      inv_bhv            1.00 
      418 xsar.xsa_logic.xdata6.xi40.     tgb                1.00 
      419 xsar.xsa_logic.xdata6.xi34.     tgb                1.00 
      420 xsar.xsa_logic.xdata6.xi41.     tgb                1.00 
      421 xsar.xsa_logic.xdata6.xsw1.     tgb                1.00 
      422 xsar.xsa_logic.xdata6.xi42.     nor2_bhv           1.00 
      423 xsar.xsa_logic.xdata6.xi43.     nor2_bhv           1.00 
      424 xsar.xsa_logic.xdata6.xi31.     nor2_bhv           1.00 
      425 xsar.xsa_logic.xdata6.xi37.     nor2_bhv           1.00 
      426 xsar.xsa_logic.xdata4.xi1.      inv_bhv            1.00 
      427 xsar.xsa_logic.xdata4.xi40.     tgb                1.00 
      428 xsar.xsa_logic.xdata4.xi34.     tgb                1.00 
      429 xsar.xsa_logic.xdata4.xi41.     tgb                1.00 
      430 xsar.xsa_logic.xdata4.xsw1.     tgb                1.00 
      431 xsar.xsa_logic.xdata4.xi42.     nor2_bhv           1.00 
      432 xsar.xsa_logic.xdata4.xi43.     nor2_bhv           1.00 
      433 xsar.xsa_logic.xdata4.xi31.     nor2_bhv           1.00 
      434 xsar.xsa_logic.xdata4.xi37.     nor2_bhv           1.00 
      435 xsar.xsa_logic.xrsh6.xi1.       inv_bhv            1.00 
      436 xsar.xsa_logic.xrsh6.xi40.      tgb                1.00 
      437 xsar.xsa_logic.xrsh6.xi34.      tgb                1.00 
      438 xsar.xsa_logic.xrsh6.xi41.      tgb                1.00 
      439 xsar.xsa_logic.xrsh6.xsw1.      tgb                1.00 
      440 xsar.xsa_logic.xrsh6.xi42.      nor2_bhv           1.00 
      441 xsar.xsa_logic.xrsh6.xi43.      nor2_bhv           1.00 
      442 xsar.xsa_logic.xrsh6.xi31.      nor2_bhv           1.00 
      443 xsar.xsa_logic.xrsh6.xi37.      nor2_bhv           1.00 
      444 xsar.xsa_logic.xrsh7.xi1.       inv_bhv            1.00 
      445 xsar.xsa_logic.xrsh7.xi40.      tgb                1.00 
      446 xsar.xsa_logic.xrsh7.xi34.      tgb                1.00 
      447 xsar.xsa_logic.xrsh7.xi41.      tgb                1.00 
      448 xsar.xsa_logic.xrsh7.xsw1.      tgb                1.00 
      449 xsar.xsa_logic.xrsh7.xi42.      nor2_bhv           1.00 
      450 xsar.xsa_logic.xrsh7.xi43.      nor2_bhv           1.00 
      451 xsar.xsa_logic.xrsh7.xi31.      nor2_bhv           1.00 
      452 xsar.xsa_logic.xrsh7.xi37.      nor2_bhv           1.00 
      453 xsar.xdffout_7.xi1.xp1.         pmos_b             1.00 
      454 xsar.xdffout_7.xi1.xn1.         nmos_b             1.00 
      455 xsar.xdffout_7.xi42.xn1.        nmos_b             1.00 
      456 xsar.xdffout_7.xi42.xi9.        nmos_b             1.00 
      457 xsar.xdffout_7.xi42.xp1.        pmos_b             1.00 
      458 xsar.xdffout_7.xi42.xi10.       pmos_b             1.00 
      459 xsar.xdffout_7.xi43.xn1.        nmos_b             1.00 
      460 xsar.xdffout_7.xi43.xi9.        nmos_b             1.00 
      461 xsar.xdffout_7.xi43.xp1.        pmos_b             1.00 
      462 xsar.xdffout_7.xi43.xi10.       pmos_b             1.00 
      463 xsar.xdffout_7.xi31.xn1.        nmos_b             1.00 
      464 xsar.xdffout_7.xi31.xi9.        nmos_b             1.00 
      465 xsar.xdffout_7.xi31.xp1.        pmos_b             1.00 
      466 xsar.xdffout_7.xi31.xi10.       pmos_b             1.00 
      467 xsar.xdffout_7.xi37.xn1.        nmos_b             1.00 
      468 xsar.xdffout_7.xi37.xi9.        nmos_b             1.00 
      469 xsar.xdffout_7.xi37.xp1.        pmos_b             1.00 
      470 xsar.xdffout_7.xi37.xi10.       pmos_b             1.00 
      471 xsar.xdffout_6.xi1.xp1.         pmos_b             1.00 
      472 xsar.xdffout_6.xi1.xn1.         nmos_b             1.00 
      473 xsar.xdffout_6.xi42.xn1.        nmos_b             1.00 
      474 xsar.xdffout_6.xi42.xi9.        nmos_b             1.00 
      475 xsar.xdffout_6.xi42.xp1.        pmos_b             1.00 
      476 xsar.xdffout_6.xi42.xi10.       pmos_b             1.00 
      477 xsar.xdffout_6.xi43.xn1.        nmos_b             1.00 
      478 xsar.xdffout_6.xi43.xi9.        nmos_b             1.00 
      479 xsar.xdffout_6.xi43.xp1.        pmos_b             1.00 
      480 xsar.xdffout_6.xi43.xi10.       pmos_b             1.00 
      481 xsar.xdffout_6.xi31.xn1.        nmos_b             1.00 
      482 xsar.xdffout_6.xi31.xi9.        nmos_b             1.00 
      483 xsar.xdffout_6.xi31.xp1.        pmos_b             1.00 
      484 xsar.xdffout_6.xi31.xi10.       pmos_b             1.00 
      485 xsar.xdffout_6.xi37.xn1.        nmos_b             1.00 
      486 xsar.xdffout_6.xi37.xi9.        nmos_b             1.00 
      487 xsar.xdffout_6.xi37.xp1.        pmos_b             1.00 
      488 xsar.xdffout_6.xi37.xi10.       pmos_b             1.00 
      489 xsar.xdffout_5.xi1.xp1.         pmos_b             1.00 
      490 xsar.xdffout_5.xi1.xn1.         nmos_b             1.00 
      491 xsar.xdffout_5.xi42.xn1.        nmos_b             1.00 
      492 xsar.xdffout_5.xi42.xi9.        nmos_b             1.00 
      493 xsar.xdffout_5.xi42.xp1.        pmos_b             1.00 
      494 xsar.xdffout_5.xi42.xi10.       pmos_b             1.00 
      495 xsar.xdffout_5.xi43.xn1.        nmos_b             1.00 
      496 xsar.xdffout_5.xi43.xi9.        nmos_b             1.00 
      497 xsar.xdffout_5.xi43.xp1.        pmos_b             1.00 
      498 xsar.xdffout_5.xi43.xi10.       pmos_b             1.00 
      499 xsar.xdffout_5.xi31.xn1.        nmos_b             1.00 
      500 xsar.xdffout_5.xi31.xi9.        nmos_b             1.00 
      501 xsar.xdffout_5.xi31.xp1.        pmos_b             1.00 
      502 xsar.xdffout_5.xi31.xi10.       pmos_b             1.00 
      503 xsar.xdffout_5.xi37.xn1.        nmos_b             1.00 
      504 xsar.xdffout_5.xi37.xi9.        nmos_b             1.00 
      505 xsar.xdffout_5.xi37.xp1.        pmos_b             1.00 
      506 xsar.xdffout_5.xi37.xi10.       pmos_b             1.00 
      507 xsar.xdffout_4.xi1.xp1.         pmos_b             1.00 
      508 xsar.xdffout_4.xi1.xn1.         nmos_b             1.00 
      509 xsar.xdffout_4.xi42.xn1.        nmos_b             1.00 
      510 xsar.xdffout_4.xi42.xi9.        nmos_b             1.00 
      511 xsar.xdffout_4.xi42.xp1.        pmos_b             1.00 
      512 xsar.xdffout_4.xi42.xi10.       pmos_b             1.00 
      513 xsar.xdffout_4.xi43.xn1.        nmos_b             1.00 
      514 xsar.xdffout_4.xi43.xi9.        nmos_b             1.00 
      515 xsar.xdffout_4.xi43.xp1.        pmos_b             1.00 
      516 xsar.xdffout_4.xi43.xi10.       pmos_b             1.00 
      517 xsar.xdffout_4.xi31.xn1.        nmos_b             1.00 
      518 xsar.xdffout_4.xi31.xi9.        nmos_b             1.00 
      519 xsar.xdffout_4.xi31.xp1.        pmos_b             1.00 
      520 xsar.xdffout_4.xi31.xi10.       pmos_b             1.00 
      521 xsar.xdffout_4.xi37.xn1.        nmos_b             1.00 
      522 xsar.xdffout_4.xi37.xi9.        nmos_b             1.00 
      523 xsar.xdffout_4.xi37.xp1.        pmos_b             1.00 
      524 xsar.xdffout_4.xi37.xi10.       pmos_b             1.00 
      525 xsar.xdffout_3.xi1.xp1.         pmos_b             1.00 
      526 xsar.xdffout_3.xi1.xn1.         nmos_b             1.00 
      527 xsar.xdffout_3.xi42.xn1.        nmos_b             1.00 
      528 xsar.xdffout_3.xi42.xi9.        nmos_b             1.00 
      529 xsar.xdffout_3.xi42.xp1.        pmos_b             1.00 
      530 xsar.xdffout_3.xi42.xi10.       pmos_b             1.00 
      531 xsar.xdffout_3.xi43.xn1.        nmos_b             1.00 
      532 xsar.xdffout_3.xi43.xi9.        nmos_b             1.00 
      533 xsar.xdffout_3.xi43.xp1.        pmos_b             1.00 
      534 xsar.xdffout_3.xi43.xi10.       pmos_b             1.00 
      535 xsar.xdffout_3.xi31.xn1.        nmos_b             1.00 
      536 xsar.xdffout_3.xi31.xi9.        nmos_b             1.00 
      537 xsar.xdffout_3.xi31.xp1.        pmos_b             1.00 
      538 xsar.xdffout_3.xi31.xi10.       pmos_b             1.00 
      539 xsar.xdffout_3.xi37.xn1.        nmos_b             1.00 
      540 xsar.xdffout_3.xi37.xi9.        nmos_b             1.00 
      541 xsar.xdffout_3.xi37.xp1.        pmos_b             1.00 
      542 xsar.xdffout_3.xi37.xi10.       pmos_b             1.00 
      543 xsar.xdffout_2.xi1.xp1.         pmos_b             1.00 
      544 xsar.xdffout_2.xi1.xn1.         nmos_b             1.00 
      545 xsar.xdffout_2.xi42.xn1.        nmos_b             1.00 
      546 xsar.xdffout_2.xi42.xi9.        nmos_b             1.00 
      547 xsar.xdffout_2.xi42.xp1.        pmos_b             1.00 
      548 xsar.xdffout_2.xi42.xi10.       pmos_b             1.00 
      549 xsar.xdffout_2.xi43.xn1.        nmos_b             1.00 
      550 xsar.xdffout_2.xi43.xi9.        nmos_b             1.00 
      551 xsar.xdffout_2.xi43.xp1.        pmos_b             1.00 
      552 xsar.xdffout_2.xi43.xi10.       pmos_b             1.00 
      553 xsar.xdffout_2.xi31.xn1.        nmos_b             1.00 
      554 xsar.xdffout_2.xi31.xi9.        nmos_b             1.00 
      555 xsar.xdffout_2.xi31.xp1.        pmos_b             1.00 
      556 xsar.xdffout_2.xi31.xi10.       pmos_b             1.00 
      557 xsar.xdffout_2.xi37.xn1.        nmos_b             1.00 
      558 xsar.xdffout_2.xi37.xi9.        nmos_b             1.00 
      559 xsar.xdffout_2.xi37.xp1.        pmos_b             1.00 
      560 xsar.xdffout_2.xi37.xi10.       pmos_b             1.00 
      561 xsar.xdffout_1.xi1.xp1.         pmos_b             1.00 
      562 xsar.xdffout_1.xi1.xn1.         nmos_b             1.00 
      563 xsar.xdffout_1.xi42.xn1.        nmos_b             1.00 
      564 xsar.xdffout_1.xi42.xi9.        nmos_b             1.00 
      565 xsar.xdffout_1.xi42.xp1.        pmos_b             1.00 
      566 xsar.xdffout_1.xi42.xi10.       pmos_b             1.00 
      567 xsar.xdffout_1.xi43.xn1.        nmos_b             1.00 
      568 xsar.xdffout_1.xi43.xi9.        nmos_b             1.00 
      569 xsar.xdffout_1.xi43.xp1.        pmos_b             1.00 
      570 xsar.xdffout_1.xi43.xi10.       pmos_b             1.00 
      571 xsar.xdffout_1.xi31.xn1.        nmos_b             1.00 
      572 xsar.xdffout_1.xi31.xi9.        nmos_b             1.00 
      573 xsar.xdffout_1.xi31.xp1.        pmos_b             1.00 
      574 xsar.xdffout_1.xi31.xi10.       pmos_b             1.00 
      575 xsar.xdffout_1.xi37.xn1.        nmos_b             1.00 
      576 xsar.xdffout_1.xi37.xi9.        nmos_b             1.00 
      577 xsar.xdffout_1.xi37.xp1.        pmos_b             1.00 
      578 xsar.xdffout_1.xi37.xi10.       pmos_b             1.00 
      579 xsar.xdffout_0.xi1.xp1.         pmos_b             1.00 
      580 xsar.xdffout_0.xi1.xn1.         nmos_b             1.00 
      581 xsar.xdffout_0.xi42.xn1.        nmos_b             1.00 
      582 xsar.xdffout_0.xi42.xi9.        nmos_b             1.00 
      583 xsar.xdffout_0.xi42.xp1.        pmos_b             1.00 
      584 xsar.xdffout_0.xi42.xi10.       pmos_b             1.00 
      585 xsar.xdffout_0.xi43.xn1.        nmos_b             1.00 
      586 xsar.xdffout_0.xi43.xi9.        nmos_b             1.00 
      587 xsar.xdffout_0.xi43.xp1.        pmos_b             1.00 
      588 xsar.xdffout_0.xi43.xi10.       pmos_b             1.00 
      589 xsar.xdffout_0.xi31.xn1.        nmos_b             1.00 
      590 xsar.xdffout_0.xi31.xi9.        nmos_b             1.00 
      591 xsar.xdffout_0.xi31.xp1.        pmos_b             1.00 
      592 xsar.xdffout_0.xi31.xi10.       pmos_b             1.00 
      593 xsar.xdffout_0.xi37.xn1.        nmos_b             1.00 
      594 xsar.xdffout_0.xi37.xi9.        nmos_b             1.00 
      595 xsar.xdffout_0.xi37.xp1.        pmos_b             1.00 
      596 xsar.xdffout_0.xi37.xi10.       pmos_b             1.00 
      597 xds.xint1.xdac.xi6.             tgb                1.00 
      598 xds.xint1.xdac.xi7.             tgb                1.00 
      599 xds.xint1.xdac.xi40.            tgb                1.00 
      600 xds.xint1.xdac.xi41.            tgb                1.00 
      601 xds.xquantizer.xcmp3.xdff.      dff                1.00 
      602 xds.xquantizer.xcmp3.xpreamp.   amp_cmp            1.00 
      603 xds.xquantizer.xi1.xp1.         pmos_b             1.00 
      604 xds.xquantizer.xi1.xn1.         nmos_b             1.00 
      605 xds.xclk_fb.xi64.xp1.           pmos_b             1.00 
      606 xds.xclk_fb.xi64.xn1.           nmos_b             1.00 
      607 xds.xclk_fb.xi20.xp1.           pmos_b             1.00 
      608 xds.xclk_fb.xi20.xn1.           nmos_b             1.00 
      609 xds.xclk_fb.xi60.xp1.           pmos_b             1.00 
      610 xds.xclk_fb.xi60.xn1.           nmos_b             1.00 
      611 xds.xclk_fb.xi59.xp1.           pmos_b             1.00 
      612 xds.xclk_fb.xi59.xn1.           nmos_b             1.00 
      613 xds.xclk_fb.xi63.xp1.           pmos_b             1.00 
      614 xds.xclk_fb.xi63.xn1.           nmos_b             1.00 
      615 xds.xclk_fb.xi62.xn1.           nmos_b             1.00 
      616 xds.xclk_fb.xi62.xi9.           nmos_b             1.00 
      617 xds.xclk_fb.xi62.xp1.           pmos_b             1.00 
      618 xds.xclk_fb.xi62.xi10.          pmos_b             1.00 
      619 xds.xclk_fb.xi19.xn1.           nmos_b             1.00 
      620 xds.xclk_fb.xi19.xi9.           nmos_b             1.00 
      621 xds.xclk_fb.xi19.xp1.           pmos_b             1.00 
      622 xds.xclk_fb.xi19.xi10.          pmos_b             1.00 
      623 xsar.xc_array_p.xsa_dac.xswdac_0.xi7.
                                            inv_bhv            1.00 
      624 xsar.xc_array_p.xsa_dac.xswdac_0.xi3.
                                            inv_bhv            1.00 
      625 xsar.xc_array_p.xsa_dac.xswdac_0.xi20.
                                            inv_bhv            1.00 
      626 xsar.xc_array_p.xsa_dac.xswdac_0.xi1.
                                            inv_bhv            1.00 
      627 xsar.xc_array_p.xsa_dac.xswdac_0.xi2.
                                            nand2_bhv          1.00 
      628 xsar.xc_array_p.xsa_dac.xswdac_0.xi19.
                                            nand2_bhv          1.00 
      629 xsar.xc_array_p.xsa_dac.xswdac_0.xswp.
                                            tgb                1.00 
      630 xsar.xc_array_p.xsa_dac.xswdac_0.xswn.
                                            tgb                1.00 
      631 xsar.xc_array_p.xsa_dac.xswdac_0.xswin.
                                            tgb                1.00 
      632 xsar.xc_array_p.xsa_dac.xswdac_1.xi7.
                                            inv_bhv            1.00 
      633 xsar.xc_array_p.xsa_dac.xswdac_1.xi3.
                                            inv_bhv            1.00 
      634 xsar.xc_array_p.xsa_dac.xswdac_1.xi20.
                                            inv_bhv            1.00 
      635 xsar.xc_array_p.xsa_dac.xswdac_1.xi1.
                                            inv_bhv            1.00 
      636 xsar.xc_array_p.xsa_dac.xswdac_1.xi2.
                                            nand2_bhv          1.00 
      637 xsar.xc_array_p.xsa_dac.xswdac_1.xi19.
                                            nand2_bhv          1.00 
      638 xsar.xc_array_p.xsa_dac.xswdac_1.xswp.
                                            tgb                1.00 
      639 xsar.xc_array_p.xsa_dac.xswdac_1.xswn.
                                            tgb                1.00 
      640 xsar.xc_array_p.xsa_dac.xswdac_1.xswin.
                                            tgb                1.00 
      641 xsar.xc_array_p.xsa_dac.xswdac_2.xi7.
                                            inv_bhv            1.00 
      642 xsar.xc_array_p.xsa_dac.xswdac_2.xi3.
                                            inv_bhv            1.00 
      643 xsar.xc_array_p.xsa_dac.xswdac_2.xi20.
                                            inv_bhv            1.00 
      644 xsar.xc_array_p.xsa_dac.xswdac_2.xi1.
                                            inv_bhv            1.00 
      645 xsar.xc_array_p.xsa_dac.xswdac_2.xi2.
                                            nand2_bhv          1.00 
      646 xsar.xc_array_p.xsa_dac.xswdac_2.xi19.
                                            nand2_bhv          1.00 
      647 xsar.xc_array_p.xsa_dac.xswdac_2.xswp.
                                            tgb                1.00 
      648 xsar.xc_array_p.xsa_dac.xswdac_2.xswn.
                                            tgb                1.00 
      649 xsar.xc_array_p.xsa_dac.xswdac_2.xswin.
                                            tgb                1.00 
      650 xsar.xc_array_p.xsa_dac.xswdac_3.xi7.
                                            inv_bhv            1.00 
      651 xsar.xc_array_p.xsa_dac.xswdac_3.xi3.
                                            inv_bhv            1.00 
      652 xsar.xc_array_p.xsa_dac.xswdac_3.xi20.
                                            inv_bhv            1.00 
      653 xsar.xc_array_p.xsa_dac.xswdac_3.xi1.
                                            inv_bhv            1.00 
      654 xsar.xc_array_p.xsa_dac.xswdac_3.xi2.
                                            nand2_bhv          1.00 
      655 xsar.xc_array_p.xsa_dac.xswdac_3.xi19.
                                            nand2_bhv          1.00 
      656 xsar.xc_array_p.xsa_dac.xswdac_3.xswp.
                                            tgb                1.00 
      657 xsar.xc_array_p.xsa_dac.xswdac_3.xswn.
                                            tgb                1.00 
      658 xsar.xc_array_p.xsa_dac.xswdac_3.xswin.
                                            tgb                1.00 
      659 xsar.xc_array_p.xsa_dac.xswdac_4.xi7.
                                            inv_bhv            1.00 
      660 xsar.xc_array_p.xsa_dac.xswdac_4.xi3.
                                            inv_bhv            1.00 
      661 xsar.xc_array_p.xsa_dac.xswdac_4.xi20.
                                            inv_bhv            1.00 
      662 xsar.xc_array_p.xsa_dac.xswdac_4.xi1.
                                            inv_bhv            1.00 
      663 xsar.xc_array_p.xsa_dac.xswdac_4.xi2.
                                            nand2_bhv          1.00 
      664 xsar.xc_array_p.xsa_dac.xswdac_4.xi19.
                                            nand2_bhv          1.00 
      665 xsar.xc_array_p.xsa_dac.xswdac_4.xswp.
                                            tgb                1.00 
      666 xsar.xc_array_p.xsa_dac.xswdac_4.xswn.
                                            tgb                1.00 
      667 xsar.xc_array_p.xsa_dac.xswdac_4.xswin.
                                            tgb                1.00 
      668 xsar.xc_array_p.xsa_dac.xswdac_5.xi7.
                                            inv_bhv            1.00 
      669 xsar.xc_array_p.xsa_dac.xswdac_5.xi3.
                                            inv_bhv            1.00 
      670 xsar.xc_array_p.xsa_dac.xswdac_5.xi20.
                                            inv_bhv            1.00 
      671 xsar.xc_array_p.xsa_dac.xswdac_5.xi1.
                                            inv_bhv            1.00 
      672 xsar.xc_array_p.xsa_dac.xswdac_5.xi2.
                                            nand2_bhv          1.00 
      673 xsar.xc_array_p.xsa_dac.xswdac_5.xi19.
                                            nand2_bhv          1.00 
      674 xsar.xc_array_p.xsa_dac.xswdac_5.xswp.
                                            tgb                1.00 
      675 xsar.xc_array_p.xsa_dac.xswdac_5.xswn.
                                            tgb                1.00 
      676 xsar.xc_array_p.xsa_dac.xswdac_5.xswin.
                                            tgb                1.00 
      677 xsar.xc_array_p.xsa_dac.xswdac_6.xi7.
                                            inv_bhv            1.00 
      678 xsar.xc_array_p.xsa_dac.xswdac_6.xi3.
                                            inv_bhv            1.00 
      679 xsar.xc_array_p.xsa_dac.xswdac_6.xi20.
                                            inv_bhv            1.00 
      680 xsar.xc_array_p.xsa_dac.xswdac_6.xi1.
                                            inv_bhv            1.00 
      681 xsar.xc_array_p.xsa_dac.xswdac_6.xi2.
                                            nand2_bhv          1.00 
      682 xsar.xc_array_p.xsa_dac.xswdac_6.xi19.
                                            nand2_bhv          1.00 
      683 xsar.xc_array_p.xsa_dac.xswdac_6.xswp.
                                            tgb                1.00 
      684 xsar.xc_array_p.xsa_dac.xswdac_6.xswn.
                                            tgb                1.00 
      685 xsar.xc_array_p.xsa_dac.xswdac_6.xswin.
                                            tgb                1.00 
      686 xsar.xc_array_p.xsa_dac.xswdac_7.xi7.
                                            inv_bhv            1.00 
      687 xsar.xc_array_p.xsa_dac.xswdac_7.xi3.
                                            inv_bhv            1.00 
      688 xsar.xc_array_p.xsa_dac.xswdac_7.xi20.
                                            inv_bhv            1.00 
      689 xsar.xc_array_p.xsa_dac.xswdac_7.xi1.
                                            inv_bhv            1.00 
      690 xsar.xc_array_p.xsa_dac.xswdac_7.xi2.
                                            nand2_bhv          1.00 
      691 xsar.xc_array_p.xsa_dac.xswdac_7.xi19.
                                            nand2_bhv          1.00 
      692 xsar.xc_array_p.xsa_dac.xswdac_7.xswp.
                                            tgb                1.00 
      693 xsar.xc_array_p.xsa_dac.xswdac_7.xswn.
                                            tgb                1.00 
      694 xsar.xc_array_p.xsa_dac.xswdac_7.xswin.
                                            tgb                1.00 
      695 xsar.xc_array_p.xsa_dac.xi1.xp1.
                                            pmos_b             1.00 
      696 xsar.xc_array_p.xsa_dac.xi1.xn1.
                                            nmos_b             1.00 
      697 xsar.xc_array_n.xsa_dac.xswdac_0.xi7.
                                            inv_bhv            1.00 
      698 xsar.xc_array_n.xsa_dac.xswdac_0.xi3.
                                            inv_bhv            1.00 
      699 xsar.xc_array_n.xsa_dac.xswdac_0.xi20.
                                            inv_bhv            1.00 
      700 xsar.xc_array_n.xsa_dac.xswdac_0.xi1.
                                            inv_bhv            1.00 
      701 xsar.xc_array_n.xsa_dac.xswdac_0.xi2.
                                            nand2_bhv          1.00 
      702 xsar.xc_array_n.xsa_dac.xswdac_0.xi19.
                                            nand2_bhv          1.00 
      703 xsar.xc_array_n.xsa_dac.xswdac_0.xswp.
                                            tgb                1.00 
      704 xsar.xc_array_n.xsa_dac.xswdac_0.xswn.
                                            tgb                1.00 
      705 xsar.xc_array_n.xsa_dac.xswdac_0.xswin.
                                            tgb                1.00 
      706 xsar.xc_array_n.xsa_dac.xswdac_1.xi7.
                                            inv_bhv            1.00 
      707 xsar.xc_array_n.xsa_dac.xswdac_1.xi3.
                                            inv_bhv            1.00 
      708 xsar.xc_array_n.xsa_dac.xswdac_1.xi20.
                                            inv_bhv            1.00 
      709 xsar.xc_array_n.xsa_dac.xswdac_1.xi1.
                                            inv_bhv            1.00 
      710 xsar.xc_array_n.xsa_dac.xswdac_1.xi2.
                                            nand2_bhv          1.00 
      711 xsar.xc_array_n.xsa_dac.xswdac_1.xi19.
                                            nand2_bhv          1.00 
      712 xsar.xc_array_n.xsa_dac.xswdac_1.xswp.
                                            tgb                1.00 
      713 xsar.xc_array_n.xsa_dac.xswdac_1.xswn.
                                            tgb                1.00 
      714 xsar.xc_array_n.xsa_dac.xswdac_1.xswin.
                                            tgb                1.00 
      715 xsar.xc_array_n.xsa_dac.xswdac_2.xi7.
                                            inv_bhv            1.00 
      716 xsar.xc_array_n.xsa_dac.xswdac_2.xi3.
                                            inv_bhv            1.00 
      717 xsar.xc_array_n.xsa_dac.xswdac_2.xi20.
                                            inv_bhv            1.00 
      718 xsar.xc_array_n.xsa_dac.xswdac_2.xi1.
                                            inv_bhv            1.00 
      719 xsar.xc_array_n.xsa_dac.xswdac_2.xi2.
                                            nand2_bhv          1.00 
      720 xsar.xc_array_n.xsa_dac.xswdac_2.xi19.
                                            nand2_bhv          1.00 
      721 xsar.xc_array_n.xsa_dac.xswdac_2.xswp.
                                            tgb                1.00 
      722 xsar.xc_array_n.xsa_dac.xswdac_2.xswn.
                                            tgb                1.00 
      723 xsar.xc_array_n.xsa_dac.xswdac_2.xswin.
                                            tgb                1.00 
      724 xsar.xc_array_n.xsa_dac.xswdac_3.xi7.
                                            inv_bhv            1.00 
      725 xsar.xc_array_n.xsa_dac.xswdac_3.xi3.
                                            inv_bhv            1.00 
      726 xsar.xc_array_n.xsa_dac.xswdac_3.xi20.
                                            inv_bhv            1.00 
      727 xsar.xc_array_n.xsa_dac.xswdac_3.xi1.
                                            inv_bhv            1.00 
      728 xsar.xc_array_n.xsa_dac.xswdac_3.xi2.
                                            nand2_bhv          1.00 
      729 xsar.xc_array_n.xsa_dac.xswdac_3.xi19.
                                            nand2_bhv          1.00 
      730 xsar.xc_array_n.xsa_dac.xswdac_3.xswp.
                                            tgb                1.00 
      731 xsar.xc_array_n.xsa_dac.xswdac_3.xswn.
                                            tgb                1.00 
      732 xsar.xc_array_n.xsa_dac.xswdac_3.xswin.
                                            tgb                1.00 
      733 xsar.xc_array_n.xsa_dac.xswdac_4.xi7.
                                            inv_bhv            1.00 
      734 xsar.xc_array_n.xsa_dac.xswdac_4.xi3.
                                            inv_bhv            1.00 
      735 xsar.xc_array_n.xsa_dac.xswdac_4.xi20.
                                            inv_bhv            1.00 
      736 xsar.xc_array_n.xsa_dac.xswdac_4.xi1.
                                            inv_bhv            1.00 
      737 xsar.xc_array_n.xsa_dac.xswdac_4.xi2.
                                            nand2_bhv          1.00 
      738 xsar.xc_array_n.xsa_dac.xswdac_4.xi19.
                                            nand2_bhv          1.00 
      739 xsar.xc_array_n.xsa_dac.xswdac_4.xswp.
                                            tgb                1.00 
      740 xsar.xc_array_n.xsa_dac.xswdac_4.xswn.
                                            tgb                1.00 
      741 xsar.xc_array_n.xsa_dac.xswdac_4.xswin.
                                            tgb                1.00 
      742 xsar.xc_array_n.xsa_dac.xswdac_5.xi7.
                                            inv_bhv            1.00 
      743 xsar.xc_array_n.xsa_dac.xswdac_5.xi3.
                                            inv_bhv            1.00 
      744 xsar.xc_array_n.xsa_dac.xswdac_5.xi20.
                                            inv_bhv            1.00 
      745 xsar.xc_array_n.xsa_dac.xswdac_5.xi1.
                                            inv_bhv            1.00 
      746 xsar.xc_array_n.xsa_dac.xswdac_5.xi2.
                                            nand2_bhv          1.00 
      747 xsar.xc_array_n.xsa_dac.xswdac_5.xi19.
                                            nand2_bhv          1.00 
      748 xsar.xc_array_n.xsa_dac.xswdac_5.xswp.
                                            tgb                1.00 
      749 xsar.xc_array_n.xsa_dac.xswdac_5.xswn.
                                            tgb                1.00 
      750 xsar.xc_array_n.xsa_dac.xswdac_5.xswin.
                                            tgb                1.00 
      751 xsar.xc_array_n.xsa_dac.xswdac_6.xi7.
                                            inv_bhv            1.00 
      752 xsar.xc_array_n.xsa_dac.xswdac_6.xi3.
                                            inv_bhv            1.00 
      753 xsar.xc_array_n.xsa_dac.xswdac_6.xi20.
                                            inv_bhv            1.00 
      754 xsar.xc_array_n.xsa_dac.xswdac_6.xi1.
                                            inv_bhv            1.00 
      755 xsar.xc_array_n.xsa_dac.xswdac_6.xi2.
                                            nand2_bhv          1.00 
      756 xsar.xc_array_n.xsa_dac.xswdac_6.xi19.
                                            nand2_bhv          1.00 
      757 xsar.xc_array_n.xsa_dac.xswdac_6.xswp.
                                            tgb                1.00 
      758 xsar.xc_array_n.xsa_dac.xswdac_6.xswn.
                                            tgb                1.00 
      759 xsar.xc_array_n.xsa_dac.xswdac_6.xswin.
                                            tgb                1.00 
      760 xsar.xc_array_n.xsa_dac.xswdac_7.xi7.
                                            inv_bhv            1.00 
      761 xsar.xc_array_n.xsa_dac.xswdac_7.xi3.
                                            inv_bhv            1.00 
      762 xsar.xc_array_n.xsa_dac.xswdac_7.xi20.
                                            inv_bhv            1.00 
      763 xsar.xc_array_n.xsa_dac.xswdac_7.xi1.
                                            inv_bhv            1.00 
      764 xsar.xc_array_n.xsa_dac.xswdac_7.xi2.
                                            nand2_bhv          1.00 
      765 xsar.xc_array_n.xsa_dac.xswdac_7.xi19.
                                            nand2_bhv          1.00 
      766 xsar.xc_array_n.xsa_dac.xswdac_7.xswp.
                                            tgb                1.00 
      767 xsar.xc_array_n.xsa_dac.xswdac_7.xswn.
                                            tgb                1.00 
      768 xsar.xc_array_n.xsa_dac.xswdac_7.xswin.
                                            tgb                1.00 
      769 xsar.xc_array_n.xsa_dac.xi1.xp1.
                                            pmos_b             1.00 
      770 xsar.xc_array_n.xsa_dac.xi1.xn1.
                                            nmos_b             1.00 
      771 xsar.xsa_logic.xdata3.xi1.xp1.  pmos_b             1.00 
      772 xsar.xsa_logic.xdata3.xi1.xn1.  nmos_b             1.00 
      773 xsar.xsa_logic.xdata3.xi42.xn1. nmos_b             1.00 
      774 xsar.xsa_logic.xdata3.xi42.xi9. nmos_b             1.00 
      775 xsar.xsa_logic.xdata3.xi42.xp1. pmos_b             1.00 
      776 xsar.xsa_logic.xdata3.xi42.xi10.
                                            pmos_b             1.00 
      777 xsar.xsa_logic.xdata3.xi43.xn1. nmos_b             1.00 
      778 xsar.xsa_logic.xdata3.xi43.xi9. nmos_b             1.00 
      779 xsar.xsa_logic.xdata3.xi43.xp1. pmos_b             1.00 
      780 xsar.xsa_logic.xdata3.xi43.xi10.
                                            pmos_b             1.00 
      781 xsar.xsa_logic.xdata3.xi31.xn1. nmos_b             1.00 
      782 xsar.xsa_logic.xdata3.xi31.xi9. nmos_b             1.00 
      783 xsar.xsa_logic.xdata3.xi31.xp1. pmos_b             1.00 
      784 xsar.xsa_logic.xdata3.xi31.xi10.
                                            pmos_b             1.00 
      785 xsar.xsa_logic.xdata3.xi37.xn1. nmos_b             1.00 
      786 xsar.xsa_logic.xdata3.xi37.xi9. nmos_b             1.00 
      787 xsar.xsa_logic.xdata3.xi37.xp1. pmos_b             1.00 
      788 xsar.xsa_logic.xdata3.xi37.xi10.
                                            pmos_b             1.00 
      789 xsar.xsa_logic.xdata2.xi1.xp1.  pmos_b             1.00 
      790 xsar.xsa_logic.xdata2.xi1.xn1.  nmos_b             1.00 
      791 xsar.xsa_logic.xdata2.xi42.xn1. nmos_b             1.00 
      792 xsar.xsa_logic.xdata2.xi42.xi9. nmos_b             1.00 
      793 xsar.xsa_logic.xdata2.xi42.xp1. pmos_b             1.00 
      794 xsar.xsa_logic.xdata2.xi42.xi10.
                                            pmos_b             1.00 
      795 xsar.xsa_logic.xdata2.xi43.xn1. nmos_b             1.00 
      796 xsar.xsa_logic.xdata2.xi43.xi9. nmos_b             1.00 
      797 xsar.xsa_logic.xdata2.xi43.xp1. pmos_b             1.00 
      798 xsar.xsa_logic.xdata2.xi43.xi10.
                                            pmos_b             1.00 
      799 xsar.xsa_logic.xdata2.xi31.xn1. nmos_b             1.00 
      800 xsar.xsa_logic.xdata2.xi31.xi9. nmos_b             1.00 
      801 xsar.xsa_logic.xdata2.xi31.xp1. pmos_b             1.00 
      802 xsar.xsa_logic.xdata2.xi31.xi10.
                                            pmos_b             1.00 
      803 xsar.xsa_logic.xdata2.xi37.xn1. nmos_b             1.00 
      804 xsar.xsa_logic.xdata2.xi37.xi9. nmos_b             1.00 
      805 xsar.xsa_logic.xdata2.xi37.xp1. pmos_b             1.00 
      806 xsar.xsa_logic.xdata2.xi37.xi10.
                                            pmos_b             1.00 
      807 xsar.xsa_logic.xdata1.xi1.xp1.  pmos_b             1.00 
      808 xsar.xsa_logic.xdata1.xi1.xn1.  nmos_b             1.00 
      809 xsar.xsa_logic.xdata1.xi42.xn1. nmos_b             1.00 
      810 xsar.xsa_logic.xdata1.xi42.xi9. nmos_b             1.00 
      811 xsar.xsa_logic.xdata1.xi42.xp1. pmos_b             1.00 
      812 xsar.xsa_logic.xdata1.xi42.xi10.
                                            pmos_b             1.00 
      813 xsar.xsa_logic.xdata1.xi43.xn1. nmos_b             1.00 
      814 xsar.xsa_logic.xdata1.xi43.xi9. nmos_b             1.00 
      815 xsar.xsa_logic.xdata1.xi43.xp1. pmos_b             1.00 
      816 xsar.xsa_logic.xdata1.xi43.xi10.
                                            pmos_b             1.00 
      817 xsar.xsa_logic.xdata1.xi31.xn1. nmos_b             1.00 
      818 xsar.xsa_logic.xdata1.xi31.xi9. nmos_b             1.00 
      819 xsar.xsa_logic.xdata1.xi31.xp1. pmos_b             1.00 
      820 xsar.xsa_logic.xdata1.xi31.xi10.
                                            pmos_b             1.00 
      821 xsar.xsa_logic.xdata1.xi37.xn1. nmos_b             1.00 
      822 xsar.xsa_logic.xdata1.xi37.xi9. nmos_b             1.00 
      823 xsar.xsa_logic.xdata1.xi37.xp1. pmos_b             1.00 
      824 xsar.xsa_logic.xdata1.xi37.xi10.
                                            pmos_b             1.00 
      825 xsar.xsa_logic.xdata0.xi1.xp1.  pmos_b             1.00 
      826 xsar.xsa_logic.xdata0.xi1.xn1.  nmos_b             1.00 
      827 xsar.xsa_logic.xdata0.xi42.xn1. nmos_b             1.00 
      828 xsar.xsa_logic.xdata0.xi42.xi9. nmos_b             1.00 
      829 xsar.xsa_logic.xdata0.xi42.xp1. pmos_b             1.00 
      830 xsar.xsa_logic.xdata0.xi42.xi10.
                                            pmos_b             1.00 
      831 xsar.xsa_logic.xdata0.xi43.xn1. nmos_b             1.00 
      832 xsar.xsa_logic.xdata0.xi43.xi9. nmos_b             1.00 
      833 xsar.xsa_logic.xdata0.xi43.xp1. pmos_b             1.00 
      834 xsar.xsa_logic.xdata0.xi43.xi10.
                                            pmos_b             1.00 
      835 xsar.xsa_logic.xdata0.xi31.xn1. nmos_b             1.00 
      836 xsar.xsa_logic.xdata0.xi31.xi9. nmos_b             1.00 
      837 xsar.xsa_logic.xdata0.xi31.xp1. pmos_b             1.00 
      838 xsar.xsa_logic.xdata0.xi31.xi10.
                                            pmos_b             1.00 
      839 xsar.xsa_logic.xdata0.xi37.xn1. nmos_b             1.00 
      840 xsar.xsa_logic.xdata0.xi37.xi9. nmos_b             1.00 
      841 xsar.xsa_logic.xdata0.xi37.xp1. pmos_b             1.00 
      842 xsar.xsa_logic.xdata0.xi37.xi10.
                                            pmos_b             1.00 
      843 xsar.xsa_logic.xdata5.xi1.xp1.  pmos_b             1.00 
      844 xsar.xsa_logic.xdata5.xi1.xn1.  nmos_b             1.00 
      845 xsar.xsa_logic.xdata5.xi42.xn1. nmos_b             1.00 
      846 xsar.xsa_logic.xdata5.xi42.xi9. nmos_b             1.00 
      847 xsar.xsa_logic.xdata5.xi42.xp1. pmos_b             1.00 
      848 xsar.xsa_logic.xdata5.xi42.xi10.
                                            pmos_b             1.00 
      849 xsar.xsa_logic.xdata5.xi43.xn1. nmos_b             1.00 
      850 xsar.xsa_logic.xdata5.xi43.xi9. nmos_b             1.00 
      851 xsar.xsa_logic.xdata5.xi43.xp1. pmos_b             1.00 
      852 xsar.xsa_logic.xdata5.xi43.xi10.
                                            pmos_b             1.00 
      853 xsar.xsa_logic.xdata5.xi31.xn1. nmos_b             1.00 
      854 xsar.xsa_logic.xdata5.xi31.xi9. nmos_b             1.00 
      855 xsar.xsa_logic.xdata5.xi31.xp1. pmos_b             1.00 
      856 xsar.xsa_logic.xdata5.xi31.xi10.
                                            pmos_b             1.00 
      857 xsar.xsa_logic.xdata5.xi37.xn1. nmos_b             1.00 
      858 xsar.xsa_logic.xdata5.xi37.xi9. nmos_b             1.00 
      859 xsar.xsa_logic.xdata5.xi37.xp1. pmos_b             1.00 
      860 xsar.xsa_logic.xdata5.xi37.xi10.
                                            pmos_b             1.00 
      861 xsar.xsa_logic.xrsh0.xi1.xp1.   pmos_b             1.00 
      862 xsar.xsa_logic.xrsh0.xi1.xn1.   nmos_b             1.00 
      863 xsar.xsa_logic.xrsh0.xi42.xn1.  nmos_b             1.00 
      864 xsar.xsa_logic.xrsh0.xi42.xi9.  nmos_b             1.00 
      865 xsar.xsa_logic.xrsh0.xi42.xp1.  pmos_b             1.00 
      866 xsar.xsa_logic.xrsh0.xi42.xi10. pmos_b             1.00 
      867 xsar.xsa_logic.xrsh0.xi43.xn1.  nmos_b             1.00 
      868 xsar.xsa_logic.xrsh0.xi43.xi9.  nmos_b             1.00 
      869 xsar.xsa_logic.xrsh0.xi43.xp1.  pmos_b             1.00 
      870 xsar.xsa_logic.xrsh0.xi43.xi10. pmos_b             1.00 
      871 xsar.xsa_logic.xrsh0.xi31.xn1.  nmos_b             1.00 
      872 xsar.xsa_logic.xrsh0.xi31.xi9.  nmos_b             1.00 
      873 xsar.xsa_logic.xrsh0.xi31.xp1.  pmos_b             1.00 
      874 xsar.xsa_logic.xrsh0.xi31.xi10. pmos_b             1.00 
      875 xsar.xsa_logic.xrsh0.xi37.xn1.  nmos_b             1.00 
      876 xsar.xsa_logic.xrsh0.xi37.xi9.  nmos_b             1.00 
      877 xsar.xsa_logic.xrsh0.xi37.xp1.  pmos_b             1.00 
      878 xsar.xsa_logic.xrsh0.xi37.xi10. pmos_b             1.00 
      879 xsar.xsa_logic.xrsh3.xi1.xp1.   pmos_b             1.00 
      880 xsar.xsa_logic.xrsh3.xi1.xn1.   nmos_b             1.00 
      881 xsar.xsa_logic.xrsh3.xi42.xn1.  nmos_b             1.00 
      882 xsar.xsa_logic.xrsh3.xi42.xi9.  nmos_b             1.00 
      883 xsar.xsa_logic.xrsh3.xi42.xp1.  pmos_b             1.00 
      884 xsar.xsa_logic.xrsh3.xi42.xi10. pmos_b             1.00 
      885 xsar.xsa_logic.xrsh3.xi43.xn1.  nmos_b             1.00 
      886 xsar.xsa_logic.xrsh3.xi43.xi9.  nmos_b             1.00 
      887 xsar.xsa_logic.xrsh3.xi43.xp1.  pmos_b             1.00 
      888 xsar.xsa_logic.xrsh3.xi43.xi10. pmos_b             1.00 
      889 xsar.xsa_logic.xrsh3.xi31.xn1.  nmos_b             1.00 
      890 xsar.xsa_logic.xrsh3.xi31.xi9.  nmos_b             1.00 
      891 xsar.xsa_logic.xrsh3.xi31.xp1.  pmos_b             1.00 
      892 xsar.xsa_logic.xrsh3.xi31.xi10. pmos_b             1.00 
      893 xsar.xsa_logic.xrsh3.xi37.xn1.  nmos_b             1.00 
      894 xsar.xsa_logic.xrsh3.xi37.xi9.  nmos_b             1.00 
      895 xsar.xsa_logic.xrsh3.xi37.xp1.  pmos_b             1.00 
      896 xsar.xsa_logic.xrsh3.xi37.xi10. pmos_b             1.00 
      897 xsar.xsa_logic.xrsh2.xi1.xp1.   pmos_b             1.00 
      898 xsar.xsa_logic.xrsh2.xi1.xn1.   nmos_b             1.00 
      899 xsar.xsa_logic.xrsh2.xi42.xn1.  nmos_b             1.00 
      900 xsar.xsa_logic.xrsh2.xi42.xi9.  nmos_b             1.00 
      901 xsar.xsa_logic.xrsh2.xi42.xp1.  pmos_b             1.00 
      902 xsar.xsa_logic.xrsh2.xi42.xi10. pmos_b             1.00 
      903 xsar.xsa_logic.xrsh2.xi43.xn1.  nmos_b             1.00 
      904 xsar.xsa_logic.xrsh2.xi43.xi9.  nmos_b             1.00 
      905 xsar.xsa_logic.xrsh2.xi43.xp1.  pmos_b             1.00 
      906 xsar.xsa_logic.xrsh2.xi43.xi10. pmos_b             1.00 
      907 xsar.xsa_logic.xrsh2.xi31.xn1.  nmos_b             1.00 
      908 xsar.xsa_logic.xrsh2.xi31.xi9.  nmos_b             1.00 
      909 xsar.xsa_logic.xrsh2.xi31.xp1.  pmos_b             1.00 
      910 xsar.xsa_logic.xrsh2.xi31.xi10. pmos_b             1.00 
      911 xsar.xsa_logic.xrsh2.xi37.xn1.  nmos_b             1.00 
      912 xsar.xsa_logic.xrsh2.xi37.xi9.  nmos_b             1.00 
      913 xsar.xsa_logic.xrsh2.xi37.xp1.  pmos_b             1.00 
      914 xsar.xsa_logic.xrsh2.xi37.xi10. pmos_b             1.00 
      915 xsar.xsa_logic.xrsh1.xi1.xp1.   pmos_b             1.00 
      916 xsar.xsa_logic.xrsh1.xi1.xn1.   nmos_b             1.00 
      917 xsar.xsa_logic.xrsh1.xi42.xn1.  nmos_b             1.00 
      918 xsar.xsa_logic.xrsh1.xi42.xi9.  nmos_b             1.00 
      919 xsar.xsa_logic.xrsh1.xi42.xp1.  pmos_b             1.00 
      920 xsar.xsa_logic.xrsh1.xi42.xi10. pmos_b             1.00 
      921 xsar.xsa_logic.xrsh1.xi43.xn1.  nmos_b             1.00 
      922 xsar.xsa_logic.xrsh1.xi43.xi9.  nmos_b             1.00 
      923 xsar.xsa_logic.xrsh1.xi43.xp1.  pmos_b             1.00 
      924 xsar.xsa_logic.xrsh1.xi43.xi10. pmos_b             1.00 
      925 xsar.xsa_logic.xrsh1.xi31.xn1.  nmos_b             1.00 
      926 xsar.xsa_logic.xrsh1.xi31.xi9.  nmos_b             1.00 
      927 xsar.xsa_logic.xrsh1.xi31.xp1.  pmos_b             1.00 
      928 xsar.xsa_logic.xrsh1.xi31.xi10. pmos_b             1.00 
      929 xsar.xsa_logic.xrsh1.xi37.xn1.  nmos_b             1.00 
      930 xsar.xsa_logic.xrsh1.xi37.xi9.  nmos_b             1.00 
      931 xsar.xsa_logic.xrsh1.xi37.xp1.  pmos_b             1.00 
      932 xsar.xsa_logic.xrsh1.xi37.xi10. pmos_b             1.00 
      933 xsar.xsa_logic.xrsh4.xi1.xp1.   pmos_b             1.00 
      934 xsar.xsa_logic.xrsh4.xi1.xn1.   nmos_b             1.00 
      935 xsar.xsa_logic.xrsh4.xi42.xn1.  nmos_b             1.00 
      936 xsar.xsa_logic.xrsh4.xi42.xi9.  nmos_b             1.00 
      937 xsar.xsa_logic.xrsh4.xi42.xp1.  pmos_b             1.00 
      938 xsar.xsa_logic.xrsh4.xi42.xi10. pmos_b             1.00 
      939 xsar.xsa_logic.xrsh4.xi43.xn1.  nmos_b             1.00 
      940 xsar.xsa_logic.xrsh4.xi43.xi9.  nmos_b             1.00 
      941 xsar.xsa_logic.xrsh4.xi43.xp1.  pmos_b             1.00 
      942 xsar.xsa_logic.xrsh4.xi43.xi10. pmos_b             1.00 
      943 xsar.xsa_logic.xrsh4.xi31.xn1.  nmos_b             1.00 
      944 xsar.xsa_logic.xrsh4.xi31.xi9.  nmos_b             1.00 
      945 xsar.xsa_logic.xrsh4.xi31.xp1.  pmos_b             1.00 
      946 xsar.xsa_logic.xrsh4.xi31.xi10. pmos_b             1.00 
      947 xsar.xsa_logic.xrsh4.xi37.xn1.  nmos_b             1.00 
      948 xsar.xsa_logic.xrsh4.xi37.xi9.  nmos_b             1.00 
      949 xsar.xsa_logic.xrsh4.xi37.xp1.  pmos_b             1.00 
      950 xsar.xsa_logic.xrsh4.xi37.xi10. pmos_b             1.00 
      951 xsar.xsa_logic.xdata7.xi1.xp1.  pmos_b             1.00 
      952 xsar.xsa_logic.xdata7.xi1.xn1.  nmos_b             1.00 
      953 xsar.xsa_logic.xdata7.xi42.xn1. nmos_b             1.00 
      954 xsar.xsa_logic.xdata7.xi42.xi9. nmos_b             1.00 
      955 xsar.xsa_logic.xdata7.xi42.xp1. pmos_b             1.00 
      956 xsar.xsa_logic.xdata7.xi42.xi10.
                                            pmos_b             1.00 
      957 xsar.xsa_logic.xdata7.xi43.xn1. nmos_b             1.00 
      958 xsar.xsa_logic.xdata7.xi43.xi9. nmos_b             1.00 
      959 xsar.xsa_logic.xdata7.xi43.xp1. pmos_b             1.00 
      960 xsar.xsa_logic.xdata7.xi43.xi10.
                                            pmos_b             1.00 
      961 xsar.xsa_logic.xdata7.xi31.xn1. nmos_b             1.00 
      962 xsar.xsa_logic.xdata7.xi31.xi9. nmos_b             1.00 
      963 xsar.xsa_logic.xdata7.xi31.xp1. pmos_b             1.00 
      964 xsar.xsa_logic.xdata7.xi31.xi10.
                                            pmos_b             1.00 
      965 xsar.xsa_logic.xdata7.xi37.xn1. nmos_b             1.00 
      966 xsar.xsa_logic.xdata7.xi37.xi9. nmos_b             1.00 
      967 xsar.xsa_logic.xdata7.xi37.xp1. pmos_b             1.00 
      968 xsar.xsa_logic.xdata7.xi37.xi10.
                                            pmos_b             1.00 
      969 xsar.xsa_logic.xrsh5.xi1.xp1.   pmos_b             1.00 
      970 xsar.xsa_logic.xrsh5.xi1.xn1.   nmos_b             1.00 
      971 xsar.xsa_logic.xrsh5.xi42.xn1.  nmos_b             1.00 
      972 xsar.xsa_logic.xrsh5.xi42.xi9.  nmos_b             1.00 
      973 xsar.xsa_logic.xrsh5.xi42.xp1.  pmos_b             1.00 
      974 xsar.xsa_logic.xrsh5.xi42.xi10. pmos_b             1.00 
      975 xsar.xsa_logic.xrsh5.xi43.xn1.  nmos_b             1.00 
      976 xsar.xsa_logic.xrsh5.xi43.xi9.  nmos_b             1.00 
      977 xsar.xsa_logic.xrsh5.xi43.xp1.  pmos_b             1.00 
      978 xsar.xsa_logic.xrsh5.xi43.xi10. pmos_b             1.00 
      979 xsar.xsa_logic.xrsh5.xi31.xn1.  nmos_b             1.00 
      980 xsar.xsa_logic.xrsh5.xi31.xi9.  nmos_b             1.00 
      981 xsar.xsa_logic.xrsh5.xi31.xp1.  pmos_b             1.00 
      982 xsar.xsa_logic.xrsh5.xi31.xi10. pmos_b             1.00 
      983 xsar.xsa_logic.xrsh5.xi37.xn1.  nmos_b             1.00 
      984 xsar.xsa_logic.xrsh5.xi37.xi9.  nmos_b             1.00 
      985 xsar.xsa_logic.xrsh5.xi37.xp1.  pmos_b             1.00 
      986 xsar.xsa_logic.xrsh5.xi37.xi10. pmos_b             1.00 
      987 xsar.xsa_logic.xdata6.xi1.xp1.  pmos_b             1.00 
      988 xsar.xsa_logic.xdata6.xi1.xn1.  nmos_b             1.00 
      989 xsar.xsa_logic.xdata6.xi42.xn1. nmos_b             1.00 
      990 xsar.xsa_logic.xdata6.xi42.xi9. nmos_b             1.00 
      991 xsar.xsa_logic.xdata6.xi42.xp1. pmos_b             1.00 
      992 xsar.xsa_logic.xdata6.xi42.xi10.
                                            pmos_b             1.00 
      993 xsar.xsa_logic.xdata6.xi43.xn1. nmos_b             1.00 
      994 xsar.xsa_logic.xdata6.xi43.xi9. nmos_b             1.00 
      995 xsar.xsa_logic.xdata6.xi43.xp1. pmos_b             1.00 
      996 xsar.xsa_logic.xdata6.xi43.xi10.
                                            pmos_b             1.00 
      997 xsar.xsa_logic.xdata6.xi31.xn1. nmos_b             1.00 
      998 xsar.xsa_logic.xdata6.xi31.xi9. nmos_b             1.00 
      999 xsar.xsa_logic.xdata6.xi31.xp1. pmos_b             1.00 
     1000 xsar.xsa_logic.xdata6.xi31.xi10.
                                            pmos_b             1.00 
     1001 xsar.xsa_logic.xdata6.xi37.xn1. nmos_b             1.00 
     1002 xsar.xsa_logic.xdata6.xi37.xi9. nmos_b             1.00 
     1003 xsar.xsa_logic.xdata6.xi37.xp1. pmos_b             1.00 
     1004 xsar.xsa_logic.xdata6.xi37.xi10.
                                            pmos_b             1.00 
     1005 xsar.xsa_logic.xdata4.xi1.xp1.  pmos_b             1.00 
     1006 xsar.xsa_logic.xdata4.xi1.xn1.  nmos_b             1.00 
     1007 xsar.xsa_logic.xdata4.xi42.xn1. nmos_b             1.00 
     1008 xsar.xsa_logic.xdata4.xi42.xi9. nmos_b             1.00 
     1009 xsar.xsa_logic.xdata4.xi42.xp1. pmos_b             1.00 
     1010 xsar.xsa_logic.xdata4.xi42.xi10.
[...]
 +   0:iref_3  =   0.         0:out_int2= 900.0000m    0:out_int2= 900.0000m
 +   0:p1      =   0.         0:p1_b    =   1.8000     0:p1d     =   0.     
 +   0:p1d_b   =   1.8000     0:p2      =   0.         0:p2_b    =   1.8000 
 +   0:p2d     =   0.         0:p2d_b   =   1.8000     0:pdn     =   0.     
 +   0:psamp   =   0.         0:rst     =   0.         0:rst_b   =   1.8000 
 +   0:rst_matl=   0.         0:sa_0    =   1.8000     0:sa_1    =   1.8000 
 +   0:sa_2    =   1.8000     0:sa_3    =   1.8000     0:sa_4    =   1.8000 
 +   0:sa_5    =   1.8000     0:sa_6    =   1.8000     0:sa_7    =   1.8000 
 +   0:sa_b_0  =  36.0000f    0:sa_b_1  =  36.0000f    0:sa_b_2  =  36.0000f
 +   0:sa_b_3  =  36.0000f    0:sa_b_4  =  36.0000f    0:sa_b_5  =  36.0000f
 +   0:sa_b_6  =  36.0000f    0:sa_b_7  =  18.0000f    0:vcm     = 900.0000m
 +   0:vcm1    = 900.0000m    0:vrefn   =   0.         0:vrefp   =   1.8000 
 +   1:clk_b   =   1.8000     1:cmp_inn = 899.1009u    1:cmp_inp = 899.1009u
 +   1:cmp_out =   0.         1:db_0    =   1.8000     1:db_1    =   1.8000 
 +   1:db_2    =   1.8000     1:db_3    =   1.8000     1:db_4    =   1.8000 
 +   1:db_5    =   1.8000     1:db_6    =   1.8000     1:db_7    =  18.0000f
 +   1:n_sw_0  = 901.4047m    1:n_sw_1  = 900.6776m    1:n_sw_2  = 900.6776m
 +   1:n_sw_3  = 900.6776m    1:n_sw_4  = 900.6776m    1:n_sw_5  = 900.6776m
 +   1:n_sw_6  = 901.1285m    1:n_sw_7  =   1.8000     1:n_sw_b_0= 899.2686m
 +   1:n_sw_b_1= 899.6729m    1:n_sw_b_2= 899.6729m    1:n_sw_b_3= 899.6729m
 +   1:n_sw_b_4= 899.6729m    1:n_sw_b_5= 899.6729m    1:n_sw_b_6= 899.6723m
 +   1:n_sw_b_7=  18.0000f    1:net23   =   1.8000     1:pdac    =  18.0000f
 +   1:psamp_b =   1.8000     2:out_int1= 900.0000m    2:out_int1= 900.0000m
 +   2:pvrefn  =  18.0000f    2:pvrefn_b=   1.8000     2:pvrefp  =  18.0000f
 +   2:pvrefp_b=   1.8000     3:dac_0   =   1.8000     3:dac_1   =   1.8000 
 +   3:dac_2   =   1.8000     3:dac_3   =   1.8000     3:dac_4   =   1.8000 
 +   3:dac_5   =   1.8000     3:dac_6   =   1.8000     3:dac_7   =  36.0000f
 +   3:net023  = 898.2031n    3:net038  =   0.         3:net30   = 899.1013u
 +   4:dac_0   = 905.5868m    4:dac_1   = 902.2684m    4:dac_2   = 902.2684m
 +   4:dac_3   = 902.2684m    4:dac_4   = 902.2684m    4:dac_5   = 902.2684m
 +   4:dac_6   = 903.5969m    4:dac_7   =   1.8000     4:net023  = 898.2031n
 +   4:net038  =   0.         4:net30   = 899.1013u    5:vout1   =   0.     
 +   6:net383  =   1.8000     6:q0      = 900.0317m    6:q1      = 899.8071m
 +   6:q2      = 899.8071m    6:q3      = 899.8071m    6:q4      = 899.8071m
 +   6:q5      = 899.8071m    6:q6      = 899.8074m    6:q7      =  28.7923f
 +   6:qb0     = 898.5955m    6:qb1     = 898.9995m    6:qb2     = 898.9995m
 +   6:qb3     = 898.9995m    6:qb4     = 898.9995m    6:qb5     = 898.9995m
 +   6:qb6     = 898.9989m    6:qb7     =   1.8000     7:clkb    =   1.8000 
 +   7:dff1    =   1.8000     7:dff2    =  18.0000f    7:dff3    =  18.0000f
 +   7:net41   =   1.8000     7:net54   =   1.8000     7:net69   =  18.0000f
 +   8:clkb    =   1.8000     8:dff1    =  18.0000f    8:dff2    =   1.8000 
 +   8:dff3    =  54.0000f    8:net41   =  18.0000f    8:net54   =   1.8000 
 +   8:net69   =   1.8000     9:clkb    =   1.8000     9:dff1    =  18.0000f
 +   9:dff2    =   1.8000     9:dff3    =  54.0000f    9:net41   =  18.0000f
 +   9:net54   =   1.8000     9:net69   =   1.8000    10:clkb    =   1.8000 
 +  10:dff1    =  18.0000f   10:dff2    =   1.8000    10:dff3    =  54.0000f
 +  10:net41   =  18.0000f   10:net54   =   1.8000    10:net69   =   1.8000 
 +  11:clkb    =   1.8000    11:dff1    =  18.0000f   11:dff2    =   1.8000 
 +  11:dff3    =  54.0000f   11:net41   =  18.0000f   11:net54   =   1.8000 
 +  11:net69   =   1.8000    12:clkb    =   1.8000    12:dff1    =  18.0000f
 +  12:dff2    =   1.8000    12:dff3    =  54.0000f   12:net41   =  18.0000f
 +  12:net54   =   1.8000    12:net69   =   1.8000    13:clkb    =   1.8000 
 +  13:dff1    =  18.0000f   13:dff2    =   1.8000    13:dff3    =  54.0000f
 +  13:net41   =  18.0000f   13:net54   =   1.8000    13:net69   =   1.8000 
 +  14:clkb    =   1.8000    14:dff1    =  18.0000f   14:dff2    =   1.8000 
 +  14:dff3    =  54.0000f   14:net41   =  18.0000f   14:net54   =   1.8000 
 +  14:net69   =   1.8000    15:net8    =  18.0000f   16:net23   =   1.8000 
 +  17:net23   =  18.0000f   18:net23   =   1.8000    19:cinn    = 449.5954u
 +  19:cinp    = 449.5954u   19:dacn    = 899.1009u   19:dacp    = 899.1009u
 +  19:opin    =  89.9551u   19:opip    =  89.9551u   19:sar_cinn=  89.8652n
 +  19:sar_cinn=  89.8652n   19:sar_cinn=  89.8652n   19:sar_cinn=  89.8652n
 +  19:sar_cinn=  89.8652n   19:sar_cinn=  89.8652n   19:sar_cinn=  89.8652n
 +  19:sar_cinn=  89.8652n   19:sar_cinp=  89.8652n   19:sar_cinp=  89.8652n
 +  19:sar_cinp=  89.8652n   19:sar_cinp=  89.8652n   19:sar_cinp=  89.8652n
 +  19:sar_cinp=  89.8652n   19:sar_cinp=  89.8652n   19:sar_cinp=  89.8652n
 +  19:sar_dacn=  35.9640a   19:sar_dacn=  35.9640a   19:sar_dacn=  35.9640a
 +  19:sar_dacn=  35.9640a   19:sar_dacn=  35.9640a   19:sar_dacn=  35.9640a
 +  19:sar_dacn=  35.9640a   19:sar_dacn=  17.9820a   19:sar_dacp=   1.7982m
 +  19:sar_dacp=   1.7982m   19:sar_dacp=   1.7982m   19:sar_dacp=   1.7982m
 +  19:sar_dacp=   1.7982m   19:sar_dacp=   1.7982m   19:sar_dacp=   1.7982m
 +  19:sar_dacp=   1.7982m   20:cinn    = 449.7751u   20:cinp    = 449.7751u
 +  20:dacn    = 899.1009u   20:dacp    = 899.1009u   20:opin    = 449.7751u
 +  20:opip    = 449.7751u   21:amp_n   = 900.0000m   21:amp_p   = 900.0000m
 +  21:d_b     =  18.0000f   21:net0107 = 899.1009u   21:net0137 = 899.1009u
 +  21:net0155 = 899.1009u   21:net0161 = 899.1009u   21:net082  = 899.1009u
 +  21:net088  = 899.1009u   21:opin    = 899.1009u   21:opip    = 899.1009u
 +  22:d_b     =  18.0000f   22:net43   =   1.8000    22:net48   =   1.8000 
 +  23:pdac_b  =   1.8000    25:pdac_b  =   1.8000    27:net23   =   1.8000 
 +  28:net16   =  36.0000f   29:net16   =   1.8000    30:net16   =   1.8000 
 +  31:net16   =   1.8000    32:net16   =   1.8000    33:net16   =   1.8000 
 +  34:net16   =   1.8000    35:net16   =   1.8000    36:net8    = 900.6776m
 +  37:net8    =   1.8000    38:net8    =  17.9955n   39:net8    = 900.6776m
 +  40:net8    = 900.6776m   41:net8    = 900.6776m   42:net8    = 900.6776m
 +  43:net8    = 901.4046m   44:clkb    = 901.3522m   44:dff1    =   1.7991 
 +  44:dff2    =  18.1822f   44:dff3    =  18.0818f   44:net41   =   1.8000 
 +  44:net54   =   1.8000    44:net69   =  18.1822f   45:clkb    = 901.3522m
 +  45:dff1    =   1.7991    45:dff2    =  18.1822f   45:dff3    =  18.0818f
 +  45:net41   =   1.8000    45:net54   =   1.8000    45:net69   =  18.1822f
 +  46:clkb    = 901.3522m   46:dff1    =   1.7991    46:dff2    =  18.1822f
 +  46:dff3    =  18.0818f   46:net41   =   1.8000    46:net54   =   1.8000 
 +  46:net69   =  18.1822f   47:clkb    = 902.0798m   47:dff1    =   1.7991 
 +  47:dff2    =  18.1821f   47:dff3    =  18.0817f   47:net41   =   1.8000 
 +  47:net54   =   1.8000    47:net69   =  18.1821f   48:clkb    = 901.3522m
 +  48:dff1    =   1.7991    48:dff2    =  18.1822f   48:dff3    =  18.0818f
 +  48:net41   =   1.8000    48:net54   =   1.8000    48:net69   =  18.1822f
 +  49:clkb    =  18.0000f   49:dff1    = 899.3583m   49:dff2    = 899.3582m
 +  49:dff3    = 899.3582m   49:net41   = 899.3583m   49:net54   = 900.0317m
 +  49:net69   = 899.3582m   50:clkb    =  18.0000f   50:dff1    = 899.3583m
 +  50:dff2    = 899.3582m   50:dff3    = 899.3582m   50:net41   = 899.3583m
 +  50:net54   = 899.8071m   50:net69   = 899.3582m   51:clkb    =  18.0000f
 +  51:dff1    = 899.3583m   51:dff2    = 899.3582m   51:dff3    = 899.3582m
 +  51:net41   = 899.3583m   51:net54   = 899.8071m   51:net69   = 899.3582m
 +  52:clkb    =  18.0000f   52:dff1    = 899.3583m   52:dff2    = 899.3582m
 +  52:dff3    = 899.3582m   52:net41   = 899.3583m   52:net54   = 899.8071m
 +  52:net69   = 899.3582m   53:clkb    =  18.0000f   53:dff1    = 899.3583m
 +  53:dff2    = 899.3582m   53:dff3    = 899.3582m   53:net41   = 899.3583m
 +  53:net54   = 899.8071m   53:net69   = 899.3582m   54:clkb    =  18.0000f
 +  54:dff1    =  54.0000f   54:dff2    =   1.8000    54:dff3    =   1.8000 
 +  54:net41   =  36.0000f   54:net54   =  18.0000f   54:net69   =   1.8000 
 +  55:clkb    =  18.0000f   55:dff1    = 899.3583m   55:dff2    = 899.3582m
 +  55:dff3    = 899.3582m   55:net41   = 899.3583m   55:net54   = 899.8071m
 +  55:net69   = 899.3582m   56:clkb    = 901.3533m   56:dff1    =   1.7991 
 +  56:dff2    =  18.1822f   56:dff3    =  18.0818f   56:net41   =   1.8000 
 +  56:net54   =   1.8000    56:net69   =  18.1822f   57:clkb    = 901.3522m
 +  57:dff1    =   1.7991    57:dff2    =  18.1822f   57:dff3    =  18.0818f
 +  57:net41   =   1.8000    57:net54   =   1.8000    57:net69   =  18.1822f
 +  58:clkb    =  18.0000f   58:dff1    = 899.3584m   58:dff2    = 899.3581m
 +  58:dff3    = 899.3581m   58:net41   = 899.3584m   58:net54   = 899.8074m
 +  58:net69   = 899.3581m   59:clkb    =  18.0000f   59:dff1    =  18.0000f
 +  59:dff2    =   1.8000    59:dff3    =   1.8000    59:net41   =  18.0000f
 +  59:net54   =  26.9936f   59:net69   =   1.8000    60:net23   =   1.8000 
 +  65:net16   =   1.8000    66:net16   =  36.0000f   67:net16   =  36.0000f
 +  68:net16   =   1.8000    69:net23   =   1.8000    74:net16   =  36.0000f
 +  75:net16   =  54.0000f   76:net16   =   1.8000    77:net16   =   1.8000 
 +  78:net23   =   1.8000    83:net16   =  36.0000f   84:net16   =  54.0000f
 +  85:net16   =   1.8000    86:net16   =   1.8000    87:net23   =   1.8000 
 +  92:net16   =  36.0000f   93:net16   =  54.0000f   94:net16   =   1.8000 
 +  95:net16   =   1.8000    96:net23   =   1.8000   101:net16   =  36.0000f
 + 102:net16   =  54.0000f  103:net16   =   1.8000   104:net16   =   1.8000 
 + 105:net23   =   1.8000   110:net16   =  36.0000f  111:net16   =  54.0000f
 + 112:net16   =   1.8000   113:net16   =   1.8000   114:net23   =   1.8000 
 + 119:net16   =  36.0000f  120:net16   =  54.0000f  121:net16   =   1.8000 
 + 122:net16   =   1.8000   123:net23   =   1.8000   128:net16   =  36.0000f
 + 129:net16   =  54.0000f  130:net16   =   1.8000   131:net16   =   1.8000 
 + 185:vcmi    = 900.0000m  196:vcmi    = 900.0000m  197:on1     =  13.8778f
 + 197:op1     = -13.8778f  197:vcm1    = 900.0000m  198:net22   = 1.800e-27
 + 199:net23   =   1.8000   214:net23   =   1.8000   215:net23   =  18.0000f
 + 216:net23   =  18.0000f  217:net23   =  18.0000f  218:net23   =   1.8000 
 + 219:net8    = 899.1009u  220:net8    =   1.8000   221:net049  =   1.8000 
 + 221:net054  =  72.0000f  221:pvrefn  =  18.0000f  221:pvrefn_b=   1.8000 
 + 221:pvrefp  =   1.8000   221:pvrefp_b=  18.0000f  222:net049  =   1.8000 
 + 222:net054  =  72.0000f  222:pvrefn  =  18.0000f  222:pvrefn_b=   1.8000 
 + 222:pvrefp  =   1.8000   222:pvrefp_b=  18.0000f  223:net049  =   1.8000 
 + 223:net054  =  72.0000f  223:pvrefn  =  18.0000f  223:pvrefn_b=   1.8000 
 + 223:pvrefp  =   1.8000   223:pvrefp_b=  18.0000f  224:net049  =   1.8000 
 + 224:net054  =  72.0000f  224:pvrefn  =  18.0000f  224:pvrefn_b=   1.8000 
 + 224:pvrefp  =   1.8000   224:pvrefp_b=  18.0000f  225:net049  =   1.8000 
 + 225:net054  =  72.0000f  225:pvrefn  =  18.0000f  225:pvrefn_b=   1.8000 
 + 225:pvrefp  =   1.8000   225:pvrefp_b=  18.0000f  226:net049  =   1.8000 
 + 226:net054  =  72.0000f  226:pvrefn  =  18.0000f  226:pvrefn_b=   1.8000 
 + 226:pvrefp  =   1.8000   226:pvrefp_b=  18.0000f  227:net049  =   1.8000 
 + 227:net054  =  72.0000f  227:pvrefn  =  18.0000f  227:pvrefn_b=   1.8000 
 + 227:pvrefp  =   1.8000   227:pvrefp_b=  18.0000f  228:net049  =  72.0000f
 + 228:net054  =   1.8000   228:pvrefn  =   1.8000   228:pvrefn_b=  18.0000f
 + 228:pvrefp  =  18.0000f  228:pvrefp_b=   1.8000   229:net23   =   1.8000 
 + 232:net049  = 900.6429m  232:net054  = 896.7971m  232:pvrefn  = 898.3927m
 + 232:pvrefn_b= 902.4451m  232:pvrefp  = 905.3186m  232:pvrefp_b= 889.9722m
 + 233:net049  = 899.9150m  233:net054  = 898.1060m  233:pvrefn  = 899.7036m
 + 233:pvrefn_b= 900.0843m  233:pvrefp  = 902.9613m  233:pvrefp_b= 894.2174m
 + 234:net049  = 899.9150m  234:net054  = 898.1060m  234:pvrefn  = 899.7036m
 + 234:pvrefn_b= 900.0843m  234:pvrefp  = 902.9613m  234:pvrefp_b= 894.2174m
 + 235:net049  = 899.9150m  235:net054  = 898.1060m  235:pvrefn  = 899.7036m
 + 235:pvrefn_b= 900.0843m  235:pvrefp  = 902.9613m  235:pvrefp_b= 894.2174m
 + 236:net049  = 899.9150m  236:net054  = 898.1060m  236:pvrefn  = 899.7036m
 + 236:pvrefn_b= 900.0843m  236:pvrefp  = 902.9613m  236:pvrefp_b= 894.2175m
 + 237:net049  = 899.9150m  237:net054  = 898.1060m  237:pvrefn  = 899.7036m
 + 237:pvrefn_b= 900.0843m  237:pvrefp  = 902.9613m  237:pvrefp_b= 894.2175m
 + 238:net049  = 899.9160m  238:net054  = 897.2943m  238:pvrefn  = 899.7016m
 + 238:pvrefn_b= 900.0877m  238:pvrefp  = 904.4231m  238:pvrefp_b= 891.5848m
 + 239:net049  =   1.8000   239:net054  =  72.0000f  239:pvrefn  =  18.0000f
 + 239:pvrefn_b=   1.8000   239:pvrefp  =   1.8000   239:pvrefp_b=  18.0000f
 + 240:net23   =   1.8000   309:net23   = 901.3522m  314:net16   =   1.8000 
 + 315:net16   =  36.0000f  316:net16   =  36.2004f  317:net16   =   1.8000 
 + 318:net23   = 901.3522m  323:net16   =   1.8000   324:net16   =  36.0000f
 + 325:net16   =  36.2004f  326:net16   =   1.8000   327:net23   = 901.3522m
 + 332:net16   =   1.8000   333:net16   =  36.0000f  334:net16   =  36.2004f
 + 335:net16   =   1.8000   336:net23   = 902.0798m  341:net16   =   1.8000 
 + 342:net16   =  36.0000f  343:net16   =  36.2003f  344:net16   =   1.8000 
 + 345:net23   = 901.3522m  350:net16   =   1.8000   351:net16   =  36.0000f
 + 352:net16   =  36.2004f  353:net16   =   1.8000   354:net23   =  18.0000f
 + 359:net16   = 899.3583m  360:net16   = 898.5955m  361:net16   = 899.3583m
 + 362:net16   = 900.0317m  363:net23   =  18.0000f  368:net16   = 899.3583m
 + 369:net16   = 898.9995m  370:net16   = 899.3583m  371:net16   = 899.8071m
 + 372:net23   =  18.0000f  377:net16   = 899.3583m  378:net16   = 898.9995m
 + 379:net16   = 899.3583m  380:net16   = 899.8071m  381:net23   =  18.0000f
 + 386:net16   = 899.3583m  387:net16   = 898.9995m  388:net16   = 899.3583m
 + 389:net16   = 899.8071m  390:net23   =  18.0000f  395:net16   = 899.3583m
 + 396:net16   = 898.9995m  397:net16   = 899.3583m  398:net16   = 899.8071m
 + 399:net23   =  18.0000f  404:net16   =  54.0000f  405:net16   =   1.8000 
 + 406:net16   =   1.8000   407:net16   =  36.0000f  408:net23   =  18.0000f
 + 413:net16   = 899.3583m  414:net16   = 898.9995m  415:net16   = 899.3583m
 + 416:net16   = 899.8071m  417:net23   = 901.3533m  422:net16   =   1.8000 
 + 423:net16   =  36.0000f  424:net16   =  36.2004f  425:net16   =   1.8000 
 + 426:net23   = 901.3522m  431:net16   =   1.8000   432:net16   =  36.0000f
 + 433:net16   =  36.2004f  434:net16   =   1.8000   435:net23   =  18.0000f
 + 440:net16   = 899.3584m  441:net16   = 898.9989m  442:net16   = 899.3581m
 + 443:net16   = 899.8074m  444:net23   =  18.0000f  449:net16   =  36.0000f
 + 450:net16   =   1.8000   451:net16   =   1.8000   452:net16   =  44.9936f
 + 601:net275  =  18.0000f  602:vout1   =   0.       623:net23   =   1.8000 
 + 624:net23   =  18.0000f  625:net23   =   1.8000   626:net23   =  18.0000f
 + 627:net8    =  18.0000f  628:net8    =  36.0000f  632:net23   =   1.8000 
 + 633:net23   =  18.0000f  634:net23   =   1.8000   635:net23   =  18.0000f
 + 636:net8    =  18.0000f  637:net8    =  36.0000f  641:net23   =   1.8000 
 + 642:net23   =  18.0000f  643:net23   =   1.8000   644:net23   =  18.0000f
 + 645:net8    =  18.0000f  646:net8    =  36.0000f  650:net23   =   1.8000 
 + 651:net23   =  18.0000f  652:net23   =   1.8000   653:net23   =  18.0000f
 + 654:net8    =  18.0000f  655:net8    =  36.0000f  659:net23   =   1.8000 
 + 660:net23   =  18.0000f  661:net23   =   1.8000   662:net23   =  18.0000f
 + 663:net8    =  18.0000f  664:net8    =  36.0000f  668:net23   =   1.8000 
 + 669:net23   =  18.0000f  670:net23   =   1.8000   671:net23   =  18.0000f
 + 672:net8    =  18.0000f  673:net8    =  36.0000f  677:net23   =   1.8000 
 + 678:net23   =  18.0000f  679:net23   =   1.8000   680:net23   =  18.0000f
 + 681:net8    =  18.0000f  682:net8    =  36.0000f  686:net23   =  18.0000f
 + 687:net23   =   1.8000   688:net23   =  18.0000f  689:net23   =   1.8000 
 + 690:net8    =  36.0000f  691:net8    =  18.0000f  697:net23   = 902.4451m
 + 698:net23   = 889.9722m  699:net23   = 905.3186m  700:net23   = 898.3927m
 + 701:net8    =  17.9955n  702:net8    =  17.9955n  706:net23   = 900.0843m
 + 707:net23   = 894.2174m  708:net23   = 902.9613m  709:net23   = 899.7036m
 + 710:net8    =  17.9955n  711:net8    =  17.9955n  715:net23   = 900.0843m
 + 716:net23   = 894.2174m  717:net23   = 902.9613m  718:net23   = 899.7036m
 + 719:net8    =  17.9955n  720:net8    =  17.9955n  724:net23   = 900.0843m
 + 725:net23   = 894.2174m  726:net23   = 902.9613m  727:net23   = 899.7036m
 + 728:net8    =  17.9955n  729:net8    =  17.9955n  733:net23   = 900.0843m
 + 734:net23   = 894.2175m  735:net23   = 902.9613m  736:net23   = 899.7036m
 + 737:net8    =  17.9955n  738:net8    =  17.9955n  742:net23   = 900.0843m
 + 743:net23   = 894.2175m  744:net23   = 902.9613m  745:net23   = 899.7036m
 + 746:net8    =  17.9955n  747:net8    =  17.9955n  751:net23   = 900.0877m
 + 752:net23   = 891.5848m  753:net23   = 904.4231m  754:net23   = 899.7016m
 + 755:net8    =  17.9955n  756:net8    =  17.9955n  760:net23   =   1.8000 
 + 761:net23   =  18.0000f  762:net23   =   1.8000   763:net23   =  18.0000f
 + 764:net8    =  18.0000f  765:net8    =  36.0000f 1059:net017  =   1.8000 
 +1059:net22   =  18.0000f 1059:net8    =   1.8000  1060:net017  =   1.8000 
 +1060:net22   =  18.0000f 1060:net8    =   1.8000  1317:net23   =  18.0000f
 +1318:net23   =   1.8000  1321:net23   =  18.0000f 1322:net23   =   1.8000 


          ***** job concluded
 ******  
 *behavior simulation

 ****** job statistics summary tnom=  25.000 temp=  27.000 ******
  
 ******  Machine Information  ******
 CPU:
 model name	: Intel(R) Core(TM) i7-7820X CPU @ 3.60GHz
 cpu MHz	: 4000.122
  
 OS:
 Linux version 3.10.0-957.21.3.el7.x86_64 (mockbuild@kbuilder.bsys.centos.org) (gcc version 4.8.5 20150623 (Red Hat 4.8.5-36) (GCC) ) #1 SMP Tue Jun 18 16:35:19 UTC 2019


  ******  HSPICE Threads Information  ******

  Command Line Threads Count :     1
  Available CPU Count        :    16
  Actual Threads Count       :     1


  ******  Circuit Statistics  ******
  # nodes       =     721 # elements   =    4545
  # resistors   =    2209 # capacitors =    1282 # inductors   =       0
  # mutual_inds =       0 # vccs       =    1020 # vcvs        =      12
  # cccs        =       0 # ccvs       =       0 # volt_srcs   =      22
  # curr_srcs   =       0 # diodes     =       0 # bjts        =       0
  # jfets       =       0 # mosfets    =       0 # U elements  =       0
  # T elements  =       0 # W elements =       0 # B elements  =       0
  # S elements  =       0 # P elements =       0 # va device   =       0
  # vector_srcs =       0 # N elements =       0


  ******  Runtime Statistics (seconds)  ******

  analysis           time    # points   tot. iter  conv.iter
  op point           0.03           1          23
  transient       3489.14        1603     9968392     3252339 rev=    179537
  readin             0.02
  errchk             0.03
  setup              0.00
  output             0.00


           peak memory used        326.03 megabytes
           total cpu time         3489.21 seconds
           total elapsed time     3504.80 seconds
           job started at     14:26:41 09/24/2019
           job ended   at     15:25:06 09/24/2019



>info:         ***** hspice job concluded
 lic: Release hspice token(s) 
 lic: total license checkout elapse time:        3.87(s)
