Using: /usr/cad/synopsys/hspice/cur/hspice/linux64/hspice bhvz2.sp
 ****** HSPICE -- O-2018.09 linux64 (Aug 26 2018) ******                        
  Copyright (c) 1986 - 2019 by Synopsys, Inc. All Rights Reserved.              
  This software and the associated documentation are proprietary
  to Synopsys, Inc. This software may only be used in accordance
  with the terms and conditions of a written license agreement with
  Synopsys, Inc. All other use, reproduction, or distribution of
  this software is strictly prohibited.
  Input File: bhvz2.sp                                                          
  Command line options: /usr/cad/synopsys/hspice/cur/hspice/linux64/hspice bhvz2.sp
 lic:  
 lic: FLEXlm: SDK_11.6.9.6 
 lic: USER:   ychuang              HOSTNAME: adc 
 lic: HOSTID: "b026281535a3"       PID:      145301 
 lic: Using FLEXlm license file: 
 lic: 26585@lsnctu 
 lic: Checkout 1 hspice 
 lic: License/Maintenance for hspice will expire on 14-may-2022/2018.09 
 lic: 94(in_use)/190(total) FLOATING license(s) on SERVER 26585@lsnctu 
 lic:   
  **warning** (bhvz2.sp:113) Unrecognized output type for xsar.v in .print or .probe; The line is ignored.
1****** HSPICE -- O-2018.09 linux64 (Aug 26 2018) ******                        
 ******  
 *behavior simulation

 ****** circuit name directory
 circuit number to circuit name directory
   number circuitname                     definition         multiplier
        0 main circuit
        1 xds.                            adc_mod2_bit1_ff_v2_8bit_sar_in
                                                                 1.00 
        2 xsar.                           adc_sar_diff_8bit_v4_monotonic
                                                                 1.00 
        3 xds.xint1.                      mod1_g103_with_1b_dac_v2_8bit_sar_in
                                                                 1.00 
        4 xds.xint2.                      mod1               1.00 
        5 xds.xquantizer.                 adder_cmp_1b_ciff2
                                                                 1.00 
        6 xds.xclk_fb.                    clk_fb_1bit        1.00 
        7 xsar.xcmp.                      vcvs_cmp           1.00 
        8 xsar.xc_array_p.                sa_8bit_c_array_with_dac_monotonic
                                                                 1.00 
        9 xsar.xc_array_n.                sa_8bit_c_array_with_dac_monotonic
                                                                 1.00 
       10 xsar.xsa_logic.                 sa_logic_8bit_monotonic
                                                                 1.00 
       11 xsar.xdffout_7.                 dff_set_rst_schematic
                                                                 1.00 
       12 xsar.xdffout_6.                 dff_set_rst_schematic
                                                                 1.00 
       13 xsar.xdffout_5.                 dff_set_rst_schematic
                                                                 1.00 
       14 xsar.xdffout_4.                 dff_set_rst_schematic
                                                                 1.00 
       15 xsar.xdffout_3.                 dff_set_rst_schematic
                                                                 1.00 
       16 xsar.xdffout_2.                 dff_set_rst_schematic
                                                                 1.00 
       17 xsar.xdffout_1.                 dff_set_rst_schematic
                                                                 1.00 
       18 xsar.xdffout_0.                 dff_set_rst_schematic
                                                                 1.00 
       19 xsar.xi7.                       nand2_bhv          1.00 
       20 xsar.xi28.                      inv_bhv            1.00 
       21 xsar.xi6.                       inv_bhv            1.00 
       22 xsar.xi5.                       inv_bhv            1.00 
       23 xds.xint1.xdac.                 dac_int_1bit       1.00 
       24 xds.xint1.xi3_0.                tgb                1.00 
       25 xds.xint1.xi3_1.                tgb                1.00 
       26 xds.xint1.xi3_2.                tgb                1.00 
       27 xds.xint1.xi3_3.                tgb                1.00 
       28 xds.xint1.xi3_4.                tgb                1.00 
       29 xds.xint1.xi3_5.                tgb                1.00 
       30 xds.xint1.xi3_6.                tgb                1.00 
       31 xds.xint1.xi3_7.                tgb                1.00 
       32 xds.xint1.xi4_0.                tgb                1.00 
       33 xds.xint1.xi4_1.                tgb                1.00 
       34 xds.xint1.xi4_2.                tgb                1.00 
       35 xds.xint1.xi4_3.                tgb                1.00 
       36 xds.xint1.xi4_4.                tgb                1.00 
       37 xds.xint1.xi4_5.                tgb                1.00 
       38 xds.xint1.xi4_6.                tgb                1.00 
       39 xds.xint1.xi4_7.                tgb                1.00 
       40 xds.xint1.xi5_0.                tgb                1.00 
       41 xds.xint1.xi5_1.                tgb                1.00 
       42 xds.xint1.xi5_2.                tgb                1.00 
       43 xds.xint1.xi5_3.                tgb                1.00 
       44 xds.xint1.xi5_4.                tgb                1.00 
       45 xds.xint1.xi5_5.                tgb                1.00 
       46 xds.xint1.xi5_6.                tgb                1.00 
       47 xds.xint1.xi5_7.                tgb                1.00 
       48 xds.xint1.xsw3.                 tgb                1.00 
       49 xds.xint1.xsw7.                 tgb                1.00 
       50 xds.xint1.xsw_sar_pbg_0.        tgb                1.00 
       51 xds.xint1.xsw_sar_pbg_1.        tgb                1.00 
       52 xds.xint1.xsw_sar_pbg_2.        tgb                1.00 
       53 xds.xint1.xsw_sar_pbg_3.        tgb                1.00 
       54 xds.xint1.xsw_sar_pbg_4.        tgb                1.00 
       55 xds.xint1.xsw_sar_pbg_5.        tgb                1.00 
       56 xds.xint1.xsw_sar_pbg_6.        tgb                1.00 
       57 xds.xint1.xsw_sar_pbg_7.        tgb                1.00 
       58 xds.xint1.xsw_sar_pbt_0.        tgb                1.00 
       59 xds.xint1.xsw_sar_pbt_1.        tgb                1.00 
       60 xds.xint1.xsw_sar_pbt_2.        tgb                1.00 
       61 xds.xint1.xsw_sar_pbt_3.        tgb                1.00 
       62 xds.xint1.xsw_sar_pbt_4.        tgb                1.00 
       63 xds.xint1.xsw_sar_pbt_5.        tgb                1.00 
       64 xds.xint1.xsw_sar_pbt_6.        tgb                1.00 
       65 xds.xint1.xsw_sar_pbt_7.        tgb                1.00 
       66 xds.xint1.xsw_sar_inp_0.        tgb                1.00 
       67 xds.xint1.xsw_sar_inp_1.        tgb                1.00 
       68 xds.xint1.xsw_sar_inp_2.        tgb                1.00 
       69 xds.xint1.xsw_sar_inp_3.        tgb                1.00 
       70 xds.xint1.xsw_sar_inp_4.        tgb                1.00 
       71 xds.xint1.xsw_sar_inp_5.        tgb                1.00 
       72 xds.xint1.xsw_sar_inp_6.        tgb                1.00 
       73 xds.xint1.xsw_sar_inp_7.        tgb                1.00 
       74 xds.xint1.xswinn.               tgb                1.00 
       75 xds.xint1.xsw2.                 tgb                1.00 
       76 xds.xint1.xsw6.                 tgb                1.00 
       77 xds.xint1.xi12.                 tgb                1.00 
       78 xds.xint1.xi13.                 tgb                1.00 
       79 xds.xint1.xswinp.               tgb                1.00 
       80 xds.xint1.xop.                  fdopb              1.00 
       81 xds.xint2.xi65.                 tgb                1.00 
       82 xds.xint2.xsw7.                 tgb                1.00 
       83 xds.xint2.xsw3.                 tgb                1.00 
       84 xds.xint2.xswinn.               tgb                1.00 
       85 xds.xint2.xswinp.               tgb                1.00 
       86 xds.xint2.xsw2.                 tgb                1.00 
       87 xds.xint2.xsw6.                 tgb                1.00 
       88 xds.xint2.xi6.                  tgb                1.00 
       89 xds.xint2.xi9.                  tgb                1.00 
       90 xds.xint2.xi66.                 tgb                1.00 
       91 xds.xint2.xop.                  fdopb              1.00 
       92 xds.xquantizer.xpreamp_bhv.     preamp_cmp_b       1.00 
       93 xds.xquantizer.xcmp3.           cmp_clk            1.00 
       94 xds.xquantizer.xi1.             inv_bhv            1.00 
       95 xds.xquantizer.xi52.            tgb                1.00 
       96 xds.xquantizer.xi63.            tgb                1.00 
       97 xds.xquantizer.xi62.            tgb                1.00 
       98 xds.xquantizer.xi55.            tgb                1.00 
       99 xds.xquantizer.xi56.            tgb                1.00 
      100 xds.xquantizer.xi65.            tgb                1.00 
      101 xds.xquantizer.xi64.            tgb                1.00 
      102 xds.xquantizer.xi60.            tgb                1.00 
      103 xds.xquantizer.xi59.            tgb                1.00 
      104 xds.xquantizer.xi13.            tgb                1.00 
      105 xds.xquantizer.xi9.             tgb                1.00 
      106 xds.xquantizer.xsw1.            tgb                1.00 
      107 xds.xquantizer.xi2.             tgb                1.00 
      108 xds.xquantizer.xsw4.            tgb                1.00 
      109 xds.xclk_fb.xi64.               inv_bhv            1.00 
      110 xds.xclk_fb.xi20.               inv_bhv            1.00 
      111 xds.xclk_fb.xi60.               inv_bhv            1.00 
      112 xds.xclk_fb.xi59.               inv_bhv            1.00 
      113 xds.xclk_fb.xi63.               inv_bhv            1.00 
      114 xds.xclk_fb.xi62.               nand2_bhv          1.00 
      115 xds.xclk_fb.xi19.               nand2_bhv          1.00 
      116 xsar.xc_array_p.xsa_dac.        sa_dac_8bit        1.00 
      117 xsar.xc_array_p.xswvcmp.        tgb                1.00 
      118 xsar.xc_array_n.xsa_dac.        sa_dac_8bit        1.00 
      119 xsar.xc_array_n.xswvcmp.        tgb                1.00 
      120 xsar.xsa_logic.xi36.            inv_bhv            1.00 
      121 xsar.xsa_logic.xi19.            nor2_bhv           1.00 
      122 xsar.xsa_logic.xi23.            nor2_bhv           1.00 
      123 xsar.xsa_logic.xi22.            nor2_bhv           1.00 
      124 xsar.xsa_logic.xi26.            nor2_bhv           1.00 
      125 xsar.xsa_logic.xi27.            nor2_bhv           1.00 
      126 xsar.xsa_logic.xi29.            nor2_bhv           1.00 
      127 xsar.xsa_logic.xi32.            nor2_bhv           1.00 
      128 xsar.xsa_logic.xi33.            nor2_bhv           1.00 
      129 xsar.xsa_logic.xi24.            nand2_bhv          1.00 
      130 xsar.xsa_logic.xi20.            nand2_bhv          1.00 
      131 xsar.xsa_logic.xi21.            nand2_bhv          1.00 
      132 xsar.xsa_logic.xi25.            nand2_bhv          1.00 
      133 xsar.xsa_logic.xi28.            nand2_bhv          1.00 
      134 xsar.xsa_logic.xi30.            nand2_bhv          1.00 
      135 xsar.xsa_logic.xi31.            nand2_bhv          1.00 
      136 xsar.xsa_logic.xi34.            nand2_bhv          1.00 
      137 xsar.xsa_logic.xdata3.          dff_set_rst        1.00 
      138 xsar.xsa_logic.xdata2.          dff_set_rst        1.00 
      139 xsar.xsa_logic.xdata1.          dff_set_rst        1.00 
      140 xsar.xsa_logic.xdata0.          dff_set_rst        1.00 
      141 xsar.xsa_logic.xdata5.          dff_set_rst        1.00 
      142 xsar.xsa_logic.xrsh0.           dff_set_rst        1.00 
      143 xsar.xsa_logic.xrsh3.           dff_set_rst        1.00 
      144 xsar.xsa_logic.xrsh2.           dff_set_rst        1.00 
      145 xsar.xsa_logic.xrsh1.           dff_set_rst        1.00 
      146 xsar.xsa_logic.xrsh4.           dff_set_rst        1.00 
      147 xsar.xsa_logic.xdata7.          dff_set_rst        1.00 
      148 xsar.xsa_logic.xrsh5.           dff_set_rst        1.00 
      149 xsar.xsa_logic.xdata6.          dff_set_rst        1.00 
      150 xsar.xsa_logic.xdata4.          dff_set_rst        1.00 
      151 xsar.xsa_logic.xrsh6.           dff_set_rst        1.00 
      152 xsar.xsa_logic.xrsh7.           dff_set_rst        1.00 
      153 xsar.xdffout_7.xi1.             inv_bhv            1.00 
      154 xsar.xdffout_7.xi40.            tgb                1.00 
      155 xsar.xdffout_7.xi34.            tgb                1.00 
      156 xsar.xdffout_7.xi41.            tgb                1.00 
      157 xsar.xdffout_7.xsw1.            tgb                1.00 
      158 xsar.xdffout_7.xi42.            nor2_bhv           1.00 
      159 xsar.xdffout_7.xi43.            nor2_bhv           1.00 
      160 xsar.xdffout_7.xi31.            nor2_bhv           1.00 
      161 xsar.xdffout_7.xi37.            nor2_bhv           1.00 
      162 xsar.xdffout_6.xi1.             inv_bhv            1.00 
      163 xsar.xdffout_6.xi40.            tgb                1.00 
      164 xsar.xdffout_6.xi34.            tgb                1.00 
      165 xsar.xdffout_6.xi41.            tgb                1.00 
      166 xsar.xdffout_6.xsw1.            tgb                1.00 
      167 xsar.xdffout_6.xi42.            nor2_bhv           1.00 
      168 xsar.xdffout_6.xi43.            nor2_bhv           1.00 
      169 xsar.xdffout_6.xi31.            nor2_bhv           1.00 
      170 xsar.xdffout_6.xi37.            nor2_bhv           1.00 
      171 xsar.xdffout_5.xi1.             inv_bhv            1.00 
      172 xsar.xdffout_5.xi40.            tgb                1.00 
      173 xsar.xdffout_5.xi34.            tgb                1.00 
      174 xsar.xdffout_5.xi41.            tgb                1.00 
      175 xsar.xdffout_5.xsw1.            tgb                1.00 
      176 xsar.xdffout_5.xi42.            nor2_bhv           1.00 
      177 xsar.xdffout_5.xi43.            nor2_bhv           1.00 
      178 xsar.xdffout_5.xi31.            nor2_bhv           1.00 
      179 xsar.xdffout_5.xi37.            nor2_bhv           1.00 
      180 xsar.xdffout_4.xi1.             inv_bhv            1.00 
      181 xsar.xdffout_4.xi40.            tgb                1.00 
      182 xsar.xdffout_4.xi34.            tgb                1.00 
      183 xsar.xdffout_4.xi41.            tgb                1.00 
      184 xsar.xdffout_4.xsw1.            tgb                1.00 
      185 xsar.xdffout_4.xi42.            nor2_bhv           1.00 
      186 xsar.xdffout_4.xi43.            nor2_bhv           1.00 
      187 xsar.xdffout_4.xi31.            nor2_bhv           1.00 
      188 xsar.xdffout_4.xi37.            nor2_bhv           1.00 
      189 xsar.xdffout_3.xi1.             inv_bhv            1.00 
      190 xsar.xdffout_3.xi40.            tgb                1.00 
      191 xsar.xdffout_3.xi34.            tgb                1.00 
      192 xsar.xdffout_3.xi41.            tgb                1.00 
      193 xsar.xdffout_3.xsw1.            tgb                1.00 
      194 xsar.xdffout_3.xi42.            nor2_bhv           1.00 
      195 xsar.xdffout_3.xi43.            nor2_bhv           1.00 
      196 xsar.xdffout_3.xi31.            nor2_bhv           1.00 
      197 xsar.xdffout_3.xi37.            nor2_bhv           1.00 
      198 xsar.xdffout_2.xi1.             inv_bhv            1.00 
      199 xsar.xdffout_2.xi40.            tgb                1.00 
      200 xsar.xdffout_2.xi34.            tgb                1.00 
      201 xsar.xdffout_2.xi41.            tgb                1.00 
      202 xsar.xdffout_2.xsw1.            tgb                1.00 
      203 xsar.xdffout_2.xi42.            nor2_bhv           1.00 
      204 xsar.xdffout_2.xi43.            nor2_bhv           1.00 
      205 xsar.xdffout_2.xi31.            nor2_bhv           1.00 
      206 xsar.xdffout_2.xi37.            nor2_bhv           1.00 
      207 xsar.xdffout_1.xi1.             inv_bhv            1.00 
      208 xsar.xdffout_1.xi40.            tgb                1.00 
      209 xsar.xdffout_1.xi34.            tgb                1.00 
      210 xsar.xdffout_1.xi41.            tgb                1.00 
      211 xsar.xdffout_1.xsw1.            tgb                1.00 
      212 xsar.xdffout_1.xi42.            nor2_bhv           1.00 
      213 xsar.xdffout_1.xi43.            nor2_bhv           1.00 
      214 xsar.xdffout_1.xi31.            nor2_bhv           1.00 
      215 xsar.xdffout_1.xi37.            nor2_bhv           1.00 
      216 xsar.xdffout_0.xi1.             inv_bhv            1.00 
      217 xsar.xdffout_0.xi40.            tgb                1.00 
      218 xsar.xdffout_0.xi34.            tgb                1.00 
      219 xsar.xdffout_0.xi41.            tgb                1.00 
      220 xsar.xdffout_0.xsw1.            tgb                1.00 
      221 xsar.xdffout_0.xi42.            nor2_bhv           1.00 
      222 xsar.xdffout_0.xi43.            nor2_bhv           1.00 
      223 xsar.xdffout_0.xi31.            nor2_bhv           1.00 
      224 xsar.xdffout_0.xi37.            nor2_bhv           1.00 
      225 xsar.xi7.xn1.                   nmos_b             1.00 
      226 xsar.xi7.xi9.                   nmos_b             1.00 
      227 xsar.xi7.xp1.                   pmos_b             1.00 
      228 xsar.xi7.xi10.                  pmos_b             1.00 
      229 xsar.xi28.xp1.                  pmos_b             1.00 
      230 xsar.xi28.xn1.                  nmos_b             1.00 
      231 xsar.xi6.xp1.                   pmos_b             1.00 
      232 xsar.xi6.xn1.                   nmos_b             1.00 
      233 xsar.xi5.xp1.                   pmos_b             1.00 
      234 xsar.xi5.xn1.                   nmos_b             1.00 
      235 xds.xint1.xdac.xi6.             tgb                1.00 
      236 xds.xint1.xdac.xi7.             tgb                1.00 
      237 xds.xint1.xdac.xi40.            tgb                1.00 
      238 xds.xint1.xdac.xi41.            tgb                1.00 
      239 xds.xquantizer.xcmp3.xdff.      dff                1.00 
      240 xds.xquantizer.xcmp3.xpreamp.   amp_cmp            1.00 
      241 xds.xquantizer.xi1.xp1.         pmos_b             1.00 
      242 xds.xquantizer.xi1.xn1.         nmos_b             1.00 
      243 xds.xclk_fb.xi64.xp1.           pmos_b             1.00 
      244 xds.xclk_fb.xi64.xn1.           nmos_b             1.00 
      245 xds.xclk_fb.xi20.xp1.           pmos_b             1.00 
      246 xds.xclk_fb.xi20.xn1.           nmos_b             1.00 
      247 xds.xclk_fb.xi60.xp1.           pmos_b             1.00 
      248 xds.xclk_fb.xi60.xn1.           nmos_b             1.00 
      249 xds.xclk_fb.xi59.xp1.           pmos_b             1.00 
      250 xds.xclk_fb.xi59.xn1.           nmos_b             1.00 
      251 xds.xclk_fb.xi63.xp1.           pmos_b             1.00 
      252 xds.xclk_fb.xi63.xn1.           nmos_b             1.00 
      253 xds.xclk_fb.xi62.xn1.           nmos_b             1.00 
      254 xds.xclk_fb.xi62.xi9.           nmos_b             1.00 
      255 xds.xclk_fb.xi62.xp1.           pmos_b             1.00 
      256 xds.xclk_fb.xi62.xi10.          pmos_b             1.00 
      257 xds.xclk_fb.xi19.xn1.           nmos_b             1.00 
      258 xds.xclk_fb.xi19.xi9.           nmos_b             1.00 
      259 xds.xclk_fb.xi19.xp1.           pmos_b             1.00 
      260 xds.xclk_fb.xi19.xi10.          pmos_b             1.00 
      261 xsar.xc_array_p.xsa_dac.xswdac_0.
                                            dac_sw             1.00 
      262 xsar.xc_array_p.xsa_dac.xswdac_1.
                                            dac_sw             1.00 
      263 xsar.xc_array_p.xsa_dac.xswdac_2.
                                            dac_sw             1.00 
      264 xsar.xc_array_p.xsa_dac.xswdac_3.
                                            dac_sw             1.00 
      265 xsar.xc_array_p.xsa_dac.xswdac_4.
                                            dac_sw             1.00 
      266 xsar.xc_array_p.xsa_dac.xswdac_5.
                                            dac_sw             1.00 
      267 xsar.xc_array_p.xsa_dac.xswdac_6.
                                            dac_sw             1.00 
      268 xsar.xc_array_p.xsa_dac.xswdac_7.
                                            dac_sw             1.00 
      269 xsar.xc_array_p.xsa_dac.xi1.    inv_bhv            1.00 
      270 xsar.xc_array_p.xsa_dac.xswdac00.
                                            tgb                1.00 
      271 xsar.xc_array_p.xsa_dac.xswvin. tgb                1.00 
      272 xsar.xc_array_n.xsa_dac.xswdac_0.
                                            dac_sw             1.00 
      273 xsar.xc_array_n.xsa_dac.xswdac_1.
                                            dac_sw             1.00 
      274 xsar.xc_array_n.xsa_dac.xswdac_2.
                                            dac_sw             1.00 
      275 xsar.xc_array_n.xsa_dac.xswdac_3.
                                            dac_sw             1.00 
      276 xsar.xc_array_n.xsa_dac.xswdac_4.
                                            dac_sw             1.00 
      277 xsar.xc_array_n.xsa_dac.xswdac_5.
                                            dac_sw             1.00 
      278 xsar.xc_array_n.xsa_dac.xswdac_6.
                                            dac_sw             1.00 
      279 xsar.xc_array_n.xsa_dac.xswdac_7.
                                            dac_sw             1.00 
      280 xsar.xc_array_n.xsa_dac.xi1.    inv_bhv            1.00 
      281 xsar.xc_array_n.xsa_dac.xswdac00.
                                            tgb                1.00 
      282 xsar.xc_array_n.xsa_dac.xswvin. tgb                1.00 
      283 xsar.xsa_logic.xi36.xp1.        pmos_b             1.00 
      284 xsar.xsa_logic.xi36.xn1.        nmos_b             1.00 
      285 xsar.xsa_logic.xi19.xn1.        nmos_b             1.00 
      286 xsar.xsa_logic.xi19.xi9.        nmos_b             1.00 
      287 xsar.xsa_logic.xi19.xp1.        pmos_b             1.00 
      288 xsar.xsa_logic.xi19.xi10.       pmos_b             1.00 
      289 xsar.xsa_logic.xi23.xn1.        nmos_b             1.00 
      290 xsar.xsa_logic.xi23.xi9.        nmos_b             1.00 
      291 xsar.xsa_logic.xi23.xp1.        pmos_b             1.00 
      292 xsar.xsa_logic.xi23.xi10.       pmos_b             1.00 
      293 xsar.xsa_logic.xi22.xn1.        nmos_b             1.00 
      294 xsar.xsa_logic.xi22.xi9.        nmos_b             1.00 
      295 xsar.xsa_logic.xi22.xp1.        pmos_b             1.00 
      296 xsar.xsa_logic.xi22.xi10.       pmos_b             1.00 
      297 xsar.xsa_logic.xi26.xn1.        nmos_b             1.00 
      298 xsar.xsa_logic.xi26.xi9.        nmos_b             1.00 
      299 xsar.xsa_logic.xi26.xp1.        pmos_b             1.00 
      300 xsar.xsa_logic.xi26.xi10.       pmos_b             1.00 
      301 xsar.xsa_logic.xi27.xn1.        nmos_b             1.00 
      302 xsar.xsa_logic.xi27.xi9.        nmos_b             1.00 
      303 xsar.xsa_logic.xi27.xp1.        pmos_b             1.00 
      304 xsar.xsa_logic.xi27.xi10.       pmos_b             1.00 
      305 xsar.xsa_logic.xi29.xn1.        nmos_b             1.00 
      306 xsar.xsa_logic.xi29.xi9.        nmos_b             1.00 
      307 xsar.xsa_logic.xi29.xp1.        pmos_b             1.00 
      308 xsar.xsa_logic.xi29.xi10.       pmos_b             1.00 
      309 xsar.xsa_logic.xi32.xn1.        nmos_b             1.00 
      310 xsar.xsa_logic.xi32.xi9.        nmos_b             1.00 
      311 xsar.xsa_logic.xi32.xp1.        pmos_b             1.00 
      312 xsar.xsa_logic.xi32.xi10.       pmos_b             1.00 
      313 xsar.xsa_logic.xi33.xn1.        nmos_b             1.00 
      314 xsar.xsa_logic.xi33.xi9.        nmos_b             1.00 
      315 xsar.xsa_logic.xi33.xp1.        pmos_b             1.00 
      316 xsar.xsa_logic.xi33.xi10.       pmos_b             1.00 
      317 xsar.xsa_logic.xi24.xn1.        nmos_b             1.00 
      318 xsar.xsa_logic.xi24.xi9.        nmos_b             1.00 
      319 xsar.xsa_logic.xi24.xp1.        pmos_b             1.00 
      320 xsar.xsa_logic.xi24.xi10.       pmos_b             1.00 
      321 xsar.xsa_logic.xi20.xn1.        nmos_b             1.00 
      322 xsar.xsa_logic.xi20.xi9.        nmos_b             1.00 
      323 xsar.xsa_logic.xi20.xp1.        pmos_b             1.00 
      324 xsar.xsa_logic.xi20.xi10.       pmos_b             1.00 
      325 xsar.xsa_logic.xi21.xn1.        nmos_b             1.00 
      326 xsar.xsa_logic.xi21.xi9.        nmos_b             1.00 
      327 xsar.xsa_logic.xi21.xp1.        pmos_b             1.00 
      328 xsar.xsa_logic.xi21.xi10.       pmos_b             1.00 
      329 xsar.xsa_logic.xi25.xn1.        nmos_b             1.00 
      330 xsar.xsa_logic.xi25.xi9.        nmos_b             1.00 
      331 xsar.xsa_logic.xi25.xp1.        pmos_b             1.00 
      332 xsar.xsa_logic.xi25.xi10.       pmos_b             1.00 
      333 xsar.xsa_logic.xi28.xn1.        nmos_b             1.00 
      334 xsar.xsa_logic.xi28.xi9.        nmos_b             1.00 
      335 xsar.xsa_logic.xi28.xp1.        pmos_b             1.00 
      336 xsar.xsa_logic.xi28.xi10.       pmos_b             1.00 
      337 xsar.xsa_logic.xi30.xn1.        nmos_b             1.00 
      338 xsar.xsa_logic.xi30.xi9.        nmos_b             1.00 
      339 xsar.xsa_logic.xi30.xp1.        pmos_b             1.00 
      340 xsar.xsa_logic.xi30.xi10.       pmos_b             1.00 
      341 xsar.xsa_logic.xi31.xn1.        nmos_b             1.00 
      342 xsar.xsa_logic.xi31.xi9.        nmos_b             1.00 
      343 xsar.xsa_logic.xi31.xp1.        pmos_b             1.00 
      344 xsar.xsa_logic.xi31.xi10.       pmos_b             1.00 
      345 xsar.xsa_logic.xi34.xn1.        nmos_b             1.00 
      346 xsar.xsa_logic.xi34.xi9.        nmos_b             1.00 
      347 xsar.xsa_logic.xi34.xp1.        pmos_b             1.00 
      348 xsar.xsa_logic.xi34.xi10.       pmos_b             1.00 
      349 xsar.xsa_logic.xdata3.xi1.      inv_bhv            1.00 
      350 xsar.xsa_logic.xdata3.xi40.     tgb                1.00 
      351 xsar.xsa_logic.xdata3.xi34.     tgb                1.00 
      352 xsar.xsa_logic.xdata3.xi41.     tgb                1.00 
      353 xsar.xsa_logic.xdata3.xsw1.     tgb                1.00 
      354 xsar.xsa_logic.xdata3.xi42.     nor2_bhv           1.00 
      355 xsar.xsa_logic.xdata3.xi43.     nor2_bhv           1.00 
      356 xsar.xsa_logic.xdata3.xi31.     nor2_bhv           1.00 
      357 xsar.xsa_logic.xdata3.xi37.     nor2_bhv           1.00 
      358 xsar.xsa_logic.xdata2.xi1.      inv_bhv            1.00 
      359 xsar.xsa_logic.xdata2.xi40.     tgb                1.00 
      360 xsar.xsa_logic.xdata2.xi34.     tgb                1.00 
      361 xsar.xsa_logic.xdata2.xi41.     tgb                1.00 
      362 xsar.xsa_logic.xdata2.xsw1.     tgb                1.00 
      363 xsar.xsa_logic.xdata2.xi42.     nor2_bhv           1.00 
      364 xsar.xsa_logic.xdata2.xi43.     nor2_bhv           1.00 
      365 xsar.xsa_logic.xdata2.xi31.     nor2_bhv           1.00 
      366 xsar.xsa_logic.xdata2.xi37.     nor2_bhv           1.00 
      367 xsar.xsa_logic.xdata1.xi1.      inv_bhv            1.00 
      368 xsar.xsa_logic.xdata1.xi40.     tgb                1.00 
      369 xsar.xsa_logic.xdata1.xi34.     tgb                1.00 
      370 xsar.xsa_logic.xdata1.xi41.     tgb                1.00 
      371 xsar.xsa_logic.xdata1.xsw1.     tgb                1.00 
      372 xsar.xsa_logic.xdata1.xi42.     nor2_bhv           1.00 
      373 xsar.xsa_logic.xdata1.xi43.     nor2_bhv           1.00 
      374 xsar.xsa_logic.xdata1.xi31.     nor2_bhv           1.00 
      375 xsar.xsa_logic.xdata1.xi37.     nor2_bhv           1.00 
      376 xsar.xsa_logic.xdata0.xi1.      inv_bhv            1.00 
      377 xsar.xsa_logic.xdata0.xi40.     tgb                1.00 
      378 xsar.xsa_logic.xdata0.xi34.     tgb                1.00 
      379 xsar.xsa_logic.xdata0.xi41.     tgb                1.00 
      380 xsar.xsa_logic.xdata0.xsw1.     tgb                1.00 
      381 xsar.xsa_logic.xdata0.xi42.     nor2_bhv           1.00 
      382 xsar.xsa_logic.xdata0.xi43.     nor2_bhv           1.00 
      383 xsar.xsa_logic.xdata0.xi31.     nor2_bhv           1.00 
      384 xsar.xsa_logic.xdata0.xi37.     nor2_bhv           1.00 
      385 xsar.xsa_logic.xdata5.xi1.      inv_bhv            1.00 
      386 xsar.xsa_logic.xdata5.xi40.     tgb                1.00 
      387 xsar.xsa_logic.xdata5.xi34.     tgb                1.00 
      388 xsar.xsa_logic.xdata5.xi41.     tgb                1.00 
      389 xsar.xsa_logic.xdata5.xsw1.     tgb                1.00 
      390 xsar.xsa_logic.xdata5.xi42.     nor2_bhv           1.00 
      391 xsar.xsa_logic.xdata5.xi43.     nor2_bhv           1.00 
      392 xsar.xsa_logic.xdata5.xi31.     nor2_bhv           1.00 
      393 xsar.xsa_logic.xdata5.xi37.     nor2_bhv           1.00 
      394 xsar.xsa_logic.xrsh0.xi1.       inv_bhv            1.00 
      395 xsar.xsa_logic.xrsh0.xi40.      tgb                1.00 
      396 xsar.xsa_logic.xrsh0.xi34.      tgb                1.00 
      397 xsar.xsa_logic.xrsh0.xi41.      tgb                1.00 
      398 xsar.xsa_logic.xrsh0.xsw1.      tgb                1.00 
      399 xsar.xsa_logic.xrsh0.xi42.      nor2_bhv           1.00 
      400 xsar.xsa_logic.xrsh0.xi43.      nor2_bhv           1.00 
      401 xsar.xsa_logic.xrsh0.xi31.      nor2_bhv           1.00 
      402 xsar.xsa_logic.xrsh0.xi37.      nor2_bhv           1.00 
      403 xsar.xsa_logic.xrsh3.xi1.       inv_bhv            1.00 
      404 xsar.xsa_logic.xrsh3.xi40.      tgb                1.00 
      405 xsar.xsa_logic.xrsh3.xi34.      tgb                1.00 
      406 xsar.xsa_logic.xrsh3.xi41.      tgb                1.00 
      407 xsar.xsa_logic.xrsh3.xsw1.      tgb                1.00 
      408 xsar.xsa_logic.xrsh3.xi42.      nor2_bhv           1.00 
      409 xsar.xsa_logic.xrsh3.xi43.      nor2_bhv           1.00 
      410 xsar.xsa_logic.xrsh3.xi31.      nor2_bhv           1.00 
      411 xsar.xsa_logic.xrsh3.xi37.      nor2_bhv           1.00 
      412 xsar.xsa_logic.xrsh2.xi1.       inv_bhv            1.00 
      413 xsar.xsa_logic.xrsh2.xi40.      tgb                1.00 
      414 xsar.xsa_logic.xrsh2.xi34.      tgb                1.00 
      415 xsar.xsa_logic.xrsh2.xi41.      tgb                1.00 
      416 xsar.xsa_logic.xrsh2.xsw1.      tgb                1.00 
      417 xsar.xsa_logic.xrsh2.xi42.      nor2_bhv           1.00 
      418 xsar.xsa_logic.xrsh2.xi43.      nor2_bhv           1.00 
      419 xsar.xsa_logic.xrsh2.xi31.      nor2_bhv           1.00 
      420 xsar.xsa_logic.xrsh2.xi37.      nor2_bhv           1.00 
      421 xsar.xsa_logic.xrsh1.xi1.       inv_bhv            1.00 
      422 xsar.xsa_logic.xrsh1.xi40.      tgb                1.00 
      423 xsar.xsa_logic.xrsh1.xi34.      tgb                1.00 
      424 xsar.xsa_logic.xrsh1.xi41.      tgb                1.00 
      425 xsar.xsa_logic.xrsh1.xsw1.      tgb                1.00 
      426 xsar.xsa_logic.xrsh1.xi42.      nor2_bhv           1.00 
      427 xsar.xsa_logic.xrsh1.xi43.      nor2_bhv           1.00 
      428 xsar.xsa_logic.xrsh1.xi31.      nor2_bhv           1.00 
      429 xsar.xsa_logic.xrsh1.xi37.      nor2_bhv           1.00 
      430 xsar.xsa_logic.xrsh4.xi1.       inv_bhv            1.00 
      431 xsar.xsa_logic.xrsh4.xi40.      tgb                1.00 
      432 xsar.xsa_logic.xrsh4.xi34.      tgb                1.00 
      433 xsar.xsa_logic.xrsh4.xi41.      tgb                1.00 
      434 xsar.xsa_logic.xrsh4.xsw1.      tgb                1.00 
      435 xsar.xsa_logic.xrsh4.xi42.      nor2_bhv           1.00 
      436 xsar.xsa_logic.xrsh4.xi43.      nor2_bhv           1.00 
      437 xsar.xsa_logic.xrsh4.xi31.      nor2_bhv           1.00 
      438 xsar.xsa_logic.xrsh4.xi37.      nor2_bhv           1.00 
      439 xsar.xsa_logic.xdata7.xi1.      inv_bhv            1.00 
      440 xsar.xsa_logic.xdata7.xi40.     tgb                1.00 
      441 xsar.xsa_logic.xdata7.xi34.     tgb                1.00 
      442 xsar.xsa_logic.xdata7.xi41.     tgb                1.00 
      443 xsar.xsa_logic.xdata7.xsw1.     tgb                1.00 
      444 xsar.xsa_logic.xdata7.xi42.     nor2_bhv           1.00 
      445 xsar.xsa_logic.xdata7.xi43.     nor2_bhv           1.00 
      446 xsar.xsa_logic.xdata7.xi31.     nor2_bhv           1.00 
      447 xsar.xsa_logic.xdata7.xi37.     nor2_bhv           1.00 
      448 xsar.xsa_logic.xrsh5.xi1.       inv_bhv            1.00 
      449 xsar.xsa_logic.xrsh5.xi40.      tgb                1.00 
      450 xsar.xsa_logic.xrsh5.xi34.      tgb                1.00 
      451 xsar.xsa_logic.xrsh5.xi41.      tgb                1.00 
      452 xsar.xsa_logic.xrsh5.xsw1.      tgb                1.00 
      453 xsar.xsa_logic.xrsh5.xi42.      nor2_bhv           1.00 
      454 xsar.xsa_logic.xrsh5.xi43.      nor2_bhv           1.00 
      455 xsar.xsa_logic.xrsh5.xi31.      nor2_bhv           1.00 
      456 xsar.xsa_logic.xrsh5.xi37.      nor2_bhv           1.00 
      457 xsar.xsa_logic.xdata6.xi1.      inv_bhv            1.00 
      458 xsar.xsa_logic.xdata6.xi40.     tgb                1.00 
      459 xsar.xsa_logic.xdata6.xi34.     tgb                1.00 
      460 xsar.xsa_logic.xdata6.xi41.     tgb                1.00 
      461 xsar.xsa_logic.xdata6.xsw1.     tgb                1.00 
      462 xsar.xsa_logic.xdata6.xi42.     nor2_bhv           1.00 
      463 xsar.xsa_logic.xdata6.xi43.     nor2_bhv           1.00 
      464 xsar.xsa_logic.xdata6.xi31.     nor2_bhv           1.00 
      465 xsar.xsa_logic.xdata6.xi37.     nor2_bhv           1.00 
      466 xsar.xsa_logic.xdata4.xi1.      inv_bhv            1.00 
      467 xsar.xsa_logic.xdata4.xi40.     tgb                1.00 
      468 xsar.xsa_logic.xdata4.xi34.     tgb                1.00 
      469 xsar.xsa_logic.xdata4.xi41.     tgb                1.00 
      470 xsar.xsa_logic.xdata4.xsw1.     tgb                1.00 
      471 xsar.xsa_logic.xdata4.xi42.     nor2_bhv           1.00 
      472 xsar.xsa_logic.xdata4.xi43.     nor2_bhv           1.00 
      473 xsar.xsa_logic.xdata4.xi31.     nor2_bhv           1.00 
      474 xsar.xsa_logic.xdata4.xi37.     nor2_bhv           1.00 
      475 xsar.xsa_logic.xrsh6.xi1.       inv_bhv            1.00 
      476 xsar.xsa_logic.xrsh6.xi40.      tgb                1.00 
      477 xsar.xsa_logic.xrsh6.xi34.      tgb                1.00 
      478 xsar.xsa_logic.xrsh6.xi41.      tgb                1.00 
      479 xsar.xsa_logic.xrsh6.xsw1.      tgb                1.00 
      480 xsar.xsa_logic.xrsh6.xi42.      nor2_bhv           1.00 
      481 xsar.xsa_logic.xrsh6.xi43.      nor2_bhv           1.00 
      482 xsar.xsa_logic.xrsh6.xi31.      nor2_bhv           1.00 
      483 xsar.xsa_logic.xrsh6.xi37.      nor2_bhv           1.00 
      484 xsar.xsa_logic.xrsh7.xi1.       inv_bhv            1.00 
      485 xsar.xsa_logic.xrsh7.xi40.      tgb                1.00 
      486 xsar.xsa_logic.xrsh7.xi34.      tgb                1.00 
      487 xsar.xsa_logic.xrsh7.xi41.      tgb                1.00 
      488 xsar.xsa_logic.xrsh7.xsw1.      tgb                1.00 
      489 xsar.xsa_logic.xrsh7.xi42.      nor2_bhv           1.00 
      490 xsar.xsa_logic.xrsh7.xi43.      nor2_bhv           1.00 
      491 xsar.xsa_logic.xrsh7.xi31.      nor2_bhv           1.00 
      492 xsar.xsa_logic.xrsh7.xi37.      nor2_bhv           1.00 
      493 xsar.xdffout_7.xi1.xp1.         pmos_b             1.00 
      494 xsar.xdffout_7.xi1.xn1.         nmos_b             1.00 
      495 xsar.xdffout_7.xi42.xn1.        nmos_b             1.00 
      496 xsar.xdffout_7.xi42.xi9.        nmos_b             1.00 
      497 xsar.xdffout_7.xi42.xp1.        pmos_b             1.00 
      498 xsar.xdffout_7.xi42.xi10.       pmos_b             1.00 
      499 xsar.xdffout_7.xi43.xn1.        nmos_b             1.00 
      500 xsar.xdffout_7.xi43.xi9.        nmos_b             1.00 
      501 xsar.xdffout_7.xi43.xp1.        pmos_b             1.00 
      502 xsar.xdffout_7.xi43.xi10.       pmos_b             1.00 
      503 xsar.xdffout_7.xi31.xn1.        nmos_b             1.00 
      504 xsar.xdffout_7.xi31.xi9.        nmos_b             1.00 
      505 xsar.xdffout_7.xi31.xp1.        pmos_b             1.00 
      506 xsar.xdffout_7.xi31.xi10.       pmos_b             1.00 
      507 xsar.xdffout_7.xi37.xn1.        nmos_b             1.00 
      508 xsar.xdffout_7.xi37.xi9.        nmos_b             1.00 
      509 xsar.xdffout_7.xi37.xp1.        pmos_b             1.00 
      510 xsar.xdffout_7.xi37.xi10.       pmos_b             1.00 
      511 xsar.xdffout_6.xi1.xp1.         pmos_b             1.00 
      512 xsar.xdffout_6.xi1.xn1.         nmos_b             1.00 
      513 xsar.xdffout_6.xi42.xn1.        nmos_b             1.00 
      514 xsar.xdffout_6.xi42.xi9.        nmos_b             1.00 
      515 xsar.xdffout_6.xi42.xp1.        pmos_b             1.00 
      516 xsar.xdffout_6.xi42.xi10.       pmos_b             1.00 
      517 xsar.xdffout_6.xi43.xn1.        nmos_b             1.00 
      518 xsar.xdffout_6.xi43.xi9.        nmos_b             1.00 
      519 xsar.xdffout_6.xi43.xp1.        pmos_b             1.00 
      520 xsar.xdffout_6.xi43.xi10.       pmos_b             1.00 
      521 xsar.xdffout_6.xi31.xn1.        nmos_b             1.00 
      522 xsar.xdffout_6.xi31.xi9.        nmos_b             1.00 
      523 xsar.xdffout_6.xi31.xp1.        pmos_b             1.00 
      524 xsar.xdffout_6.xi31.xi10.       pmos_b             1.00 
      525 xsar.xdffout_6.xi37.xn1.        nmos_b             1.00 
      526 xsar.xdffout_6.xi37.xi9.        nmos_b             1.00 
      527 xsar.xdffout_6.xi37.xp1.        pmos_b             1.00 
      528 xsar.xdffout_6.xi37.xi10.       pmos_b             1.00 
      529 xsar.xdffout_5.xi1.xp1.         pmos_b             1.00 
      530 xsar.xdffout_5.xi1.xn1.         nmos_b             1.00 
      531 xsar.xdffout_5.xi42.xn1.        nmos_b             1.00 
      532 xsar.xdffout_5.xi42.xi9.        nmos_b             1.00 
      533 xsar.xdffout_5.xi42.xp1.        pmos_b             1.00 
      534 xsar.xdffout_5.xi42.xi10.       pmos_b             1.00 
      535 xsar.xdffout_5.xi43.xn1.        nmos_b             1.00 
      536 xsar.xdffout_5.xi43.xi9.        nmos_b             1.00 
      537 xsar.xdffout_5.xi43.xp1.        pmos_b             1.00 
      538 xsar.xdffout_5.xi43.xi10.       pmos_b             1.00 
      539 xsar.xdffout_5.xi31.xn1.        nmos_b             1.00 
      540 xsar.xdffout_5.xi31.xi9.        nmos_b             1.00 
      541 xsar.xdffout_5.xi31.xp1.        pmos_b             1.00 
      542 xsar.xdffout_5.xi31.xi10.       pmos_b             1.00 
      543 xsar.xdffout_5.xi37.xn1.        nmos_b             1.00 
      544 xsar.xdffout_5.xi37.xi9.        nmos_b             1.00 
      545 xsar.xdffout_5.xi37.xp1.        pmos_b             1.00 
      546 xsar.xdffout_5.xi37.xi10.       pmos_b             1.00 
      547 xsar.xdffout_4.xi1.xp1.         pmos_b             1.00 
      548 xsar.xdffout_4.xi1.xn1.         nmos_b             1.00 
      549 xsar.xdffout_4.xi42.xn1.        nmos_b             1.00 
      550 xsar.xdffout_4.xi42.xi9.        nmos_b             1.00 
      551 xsar.xdffout_4.xi42.xp1.        pmos_b             1.00 
      552 xsar.xdffout_4.xi42.xi10.       pmos_b             1.00 
      553 xsar.xdffout_4.xi43.xn1.        nmos_b             1.00 
      554 xsar.xdffout_4.xi43.xi9.        nmos_b             1.00 
      555 xsar.xdffout_4.xi43.xp1.        pmos_b             1.00 
      556 xsar.xdffout_4.xi43.xi10.       pmos_b             1.00 
      557 xsar.xdffout_4.xi31.xn1.        nmos_b             1.00 
      558 xsar.xdffout_4.xi31.xi9.        nmos_b             1.00 
      559 xsar.xdffout_4.xi31.xp1.        pmos_b             1.00 
      560 xsar.xdffout_4.xi31.xi10.       pmos_b             1.00 
      561 xsar.xdffout_4.xi37.xn1.        nmos_b             1.00 
      562 xsar.xdffout_4.xi37.xi9.        nmos_b             1.00 
      563 xsar.xdffout_4.xi37.xp1.        pmos_b             1.00 
      564 xsar.xdffout_4.xi37.xi10.       pmos_b             1.00 
      565 xsar.xdffout_3.xi1.xp1.         pmos_b             1.00 
      566 xsar.xdffout_3.xi1.xn1.         nmos_b             1.00 
      567 xsar.xdffout_3.xi42.xn1.        nmos_b             1.00 
      568 xsar.xdffout_3.xi42.xi9.        nmos_b             1.00 
      569 xsar.xdffout_3.xi42.xp1.        pmos_b             1.00 
      570 xsar.xdffout_3.xi42.xi10.       pmos_b             1.00 
      571 xsar.xdffout_3.xi43.xn1.        nmos_b             1.00 
      572 xsar.xdffout_3.xi43.xi9.        nmos_b             1.00 
      573 xsar.xdffout_3.xi43.xp1.        pmos_b             1.00 
      574 xsar.xdffout_3.xi43.xi10.       pmos_b             1.00 
      575 xsar.xdffout_3.xi31.xn1.        nmos_b             1.00 
      576 xsar.xdffout_3.xi31.xi9.        nmos_b             1.00 
      577 xsar.xdffout_3.xi31.xp1.        pmos_b             1.00 
      578 xsar.xdffout_3.xi31.xi10.       pmos_b             1.00 
      579 xsar.xdffout_3.xi37.xn1.        nmos_b             1.00 
      580 xsar.xdffout_3.xi37.xi9.        nmos_b             1.00 
      581 xsar.xdffout_3.xi37.xp1.        pmos_b             1.00 
      582 xsar.xdffout_3.xi37.xi10.       pmos_b             1.00 
      583 xsar.xdffout_2.xi1.xp1.         pmos_b             1.00 
      584 xsar.xdffout_2.xi1.xn1.         nmos_b             1.00 
      585 xsar.xdffout_2.xi42.xn1.        nmos_b             1.00 
      586 xsar.xdffout_2.xi42.xi9.        nmos_b             1.00 
      587 xsar.xdffout_2.xi42.xp1.        pmos_b             1.00 
      588 xsar.xdffout_2.xi42.xi10.       pmos_b             1.00 
      589 xsar.xdffout_2.xi43.xn1.        nmos_b             1.00 
      590 xsar.xdffout_2.xi43.xi9.        nmos_b             1.00 
      591 xsar.xdffout_2.xi43.xp1.        pmos_b             1.00 
      592 xsar.xdffout_2.xi43.xi10.       pmos_b             1.00 
      593 xsar.xdffout_2.xi31.xn1.        nmos_b             1.00 
      594 xsar.xdffout_2.xi31.xi9.        nmos_b             1.00 
      595 xsar.xdffout_2.xi31.xp1.        pmos_b             1.00 
      596 xsar.xdffout_2.xi31.xi10.       pmos_b             1.00 
      597 xsar.xdffout_2.xi37.xn1.        nmos_b             1.00 
      598 xsar.xdffout_2.xi37.xi9.        nmos_b             1.00 
      599 xsar.xdffout_2.xi37.xp1.        pmos_b             1.00 
      600 xsar.xdffout_2.xi37.xi10.       pmos_b             1.00 
      601 xsar.xdffout_1.xi1.xp1.         pmos_b             1.00 
      602 xsar.xdffout_1.xi1.xn1.         nmos_b             1.00 
      603 xsar.xdffout_1.xi42.xn1.        nmos_b             1.00 
      604 xsar.xdffout_1.xi42.xi9.        nmos_b             1.00 
      605 xsar.xdffout_1.xi42.xp1.        pmos_b             1.00 
      606 xsar.xdffout_1.xi42.xi10.       pmos_b             1.00 
      607 xsar.xdffout_1.xi43.xn1.        nmos_b             1.00 
      608 xsar.xdffout_1.xi43.xi9.        nmos_b             1.00 
      609 xsar.xdffout_1.xi43.xp1.        pmos_b             1.00 
      610 xsar.xdffout_1.xi43.xi10.       pmos_b             1.00 
      611 xsar.xdffout_1.xi31.xn1.        nmos_b             1.00 
      612 xsar.xdffout_1.xi31.xi9.        nmos_b             1.00 
      613 xsar.xdffout_1.xi31.xp1.        pmos_b             1.00 
      614 xsar.xdffout_1.xi31.xi10.       pmos_b             1.00 
      615 xsar.xdffout_1.xi37.xn1.        nmos_b             1.00 
      616 xsar.xdffout_1.xi37.xi9.        nmos_b             1.00 
      617 xsar.xdffout_1.xi37.xp1.        pmos_b             1.00 
      618 xsar.xdffout_1.xi37.xi10.       pmos_b             1.00 
      619 xsar.xdffout_0.xi1.xp1.         pmos_b             1.00 
      620 xsar.xdffout_0.xi1.xn1.         nmos_b             1.00 
      621 xsar.xdffout_0.xi42.xn1.        nmos_b             1.00 
      622 xsar.xdffout_0.xi42.xi9.        nmos_b             1.00 
      623 xsar.xdffout_0.xi42.xp1.        pmos_b             1.00 
      624 xsar.xdffout_0.xi42.xi10.       pmos_b             1.00 
      625 xsar.xdffout_0.xi43.xn1.        nmos_b             1.00 
      626 xsar.xdffout_0.xi43.xi9.        nmos_b             1.00 
      627 xsar.xdffout_0.xi43.xp1.        pmos_b             1.00 
      628 xsar.xdffout_0.xi43.xi10.       pmos_b             1.00 
      629 xsar.xdffout_0.xi31.xn1.        nmos_b             1.00 
      630 xsar.xdffout_0.xi31.xi9.        nmos_b             1.00 
      631 xsar.xdffout_0.xi31.xp1.        pmos_b             1.00 
      632 xsar.xdffout_0.xi31.xi10.       pmos_b             1.00 
      633 xsar.xdffout_0.xi37.xn1.        nmos_b             1.00 
      634 xsar.xdffout_0.xi37.xi9.        nmos_b             1.00 
      635 xsar.xdffout_0.xi37.xp1.        pmos_b             1.00 
      636 xsar.xdffout_0.xi37.xi10.       pmos_b             1.00 
      637 xds.xquantizer.xcmp3.xdff.xi13. dlatch             1.00 
      638 xds.xquantizer.xcmp3.xdff.xi14. dlatch             1.00 
      639 xsar.xc_array_p.xsa_dac.xswdac_0.xi7.
                                            inv_bhv            1.00 
      640 xsar.xc_array_p.xsa_dac.xswdac_0.xi3.
                                            inv_bhv            1.00 
      641 xsar.xc_array_p.xsa_dac.xswdac_0.xi20.
                                            inv_bhv            1.00 
      642 xsar.xc_array_p.xsa_dac.xswdac_0.xi1.
                                            inv_bhv            1.00 
      643 xsar.xc_array_p.xsa_dac.xswdac_0.xi2.
                                            nand2_bhv          1.00 
      644 xsar.xc_array_p.xsa_dac.xswdac_0.xi19.
                                            nand2_bhv          1.00 
      645 xsar.xc_array_p.xsa_dac.xswdac_0.xswp.
                                            tgb                1.00 
      646 xsar.xc_array_p.xsa_dac.xswdac_0.xswn.
                                            tgb                1.00 
      647 xsar.xc_array_p.xsa_dac.xswdac_0.xswin.
                                            tgb                1.00 
      648 xsar.xc_array_p.xsa_dac.xswdac_1.xi7.
                                            inv_bhv            1.00 
      649 xsar.xc_array_p.xsa_dac.xswdac_1.xi3.
                                            inv_bhv            1.00 
      650 xsar.xc_array_p.xsa_dac.xswdac_1.xi20.
                                            inv_bhv            1.00 
      651 xsar.xc_array_p.xsa_dac.xswdac_1.xi1.
                                            inv_bhv            1.00 
      652 xsar.xc_array_p.xsa_dac.xswdac_1.xi2.
                                            nand2_bhv          1.00 
      653 xsar.xc_array_p.xsa_dac.xswdac_1.xi19.
                                            nand2_bhv          1.00 
      654 xsar.xc_array_p.xsa_dac.xswdac_1.xswp.
                                            tgb                1.00 
      655 xsar.xc_array_p.xsa_dac.xswdac_1.xswn.
                                            tgb                1.00 
      656 xsar.xc_array_p.xsa_dac.xswdac_1.xswin.
                                            tgb                1.00 
      657 xsar.xc_array_p.xsa_dac.xswdac_2.xi7.
                                            inv_bhv            1.00 
      658 xsar.xc_array_p.xsa_dac.xswdac_2.xi3.
                                            inv_bhv            1.00 
      659 xsar.xc_array_p.xsa_dac.xswdac_2.xi20.
                                            inv_bhv            1.00 
      660 xsar.xc_array_p.xsa_dac.xswdac_2.xi1.
                                            inv_bhv            1.00 
      661 xsar.xc_array_p.xsa_dac.xswdac_2.xi2.
                                            nand2_bhv          1.00 
      662 xsar.xc_array_p.xsa_dac.xswdac_2.xi19.
                                            nand2_bhv          1.00 
      663 xsar.xc_array_p.xsa_dac.xswdac_2.xswp.
                                            tgb                1.00 
      664 xsar.xc_array_p.xsa_dac.xswdac_2.xswn.
                                            tgb                1.00 
      665 xsar.xc_array_p.xsa_dac.xswdac_2.xswin.
                                            tgb                1.00 
      666 xsar.xc_array_p.xsa_dac.xswdac_3.xi7.
                                            inv_bhv            1.00 
      667 xsar.xc_array_p.xsa_dac.xswdac_3.xi3.
                                            inv_bhv            1.00 
      668 xsar.xc_array_p.xsa_dac.xswdac_3.xi20.
                                            inv_bhv            1.00 
      669 xsar.xc_array_p.xsa_dac.xswdac_3.xi1.
                                            inv_bhv            1.00 
      670 xsar.xc_array_p.xsa_dac.xswdac_3.xi2.
                                            nand2_bhv          1.00 
      671 xsar.xc_array_p.xsa_dac.xswdac_3.xi19.
                                            nand2_bhv          1.00 
      672 xsar.xc_array_p.xsa_dac.xswdac_3.xswp.
                                            tgb                1.00 
      673 xsar.xc_array_p.xsa_dac.xswdac_3.xswn.
                                            tgb                1.00 
      674 xsar.xc_array_p.xsa_dac.xswdac_3.xswin.
                                            tgb                1.00 
      675 xsar.xc_array_p.xsa_dac.xswdac_4.xi7.
                                            inv_bhv            1.00 
      676 xsar.xc_array_p.xsa_dac.xswdac_4.xi3.
                                            inv_bhv            1.00 
      677 xsar.xc_array_p.xsa_dac.xswdac_4.xi20.
                                            inv_bhv            1.00 
      678 xsar.xc_array_p.xsa_dac.xswdac_4.xi1.
                                            inv_bhv            1.00 
      679 xsar.xc_array_p.xsa_dac.xswdac_4.xi2.
                                            nand2_bhv          1.00 
      680 xsar.xc_array_p.xsa_dac.xswdac_4.xi19.
                                            nand2_bhv          1.00 
      681 xsar.xc_array_p.xsa_dac.xswdac_4.xswp.
                                            tgb                1.00 
      682 xsar.xc_array_p.xsa_dac.xswdac_4.xswn.
                                            tgb                1.00 
      683 xsar.xc_array_p.xsa_dac.xswdac_4.xswin.
                                            tgb                1.00 
      684 xsar.xc_array_p.xsa_dac.xswdac_5.xi7.
                                            inv_bhv            1.00 
      685 xsar.xc_array_p.xsa_dac.xswdac_5.xi3.
                                            inv_bhv            1.00 
      686 xsar.xc_array_p.xsa_dac.xswdac_5.xi20.
                                            inv_bhv            1.00 
      687 xsar.xc_array_p.xsa_dac.xswdac_5.xi1.
                                            inv_bhv            1.00 
      688 xsar.xc_array_p.xsa_dac.xswdac_5.xi2.
                                            nand2_bhv          1.00 
      689 xsar.xc_array_p.xsa_dac.xswdac_5.xi19.
                                            nand2_bhv          1.00 
      690 xsar.xc_array_p.xsa_dac.xswdac_5.xswp.
                                            tgb                1.00 
      691 xsar.xc_array_p.xsa_dac.xswdac_5.xswn.
                                            tgb                1.00 
      692 xsar.xc_array_p.xsa_dac.xswdac_5.xswin.
                                            tgb                1.00 
      693 xsar.xc_array_p.xsa_dac.xswdac_6.xi7.
                                            inv_bhv            1.00 
      694 xsar.xc_array_p.xsa_dac.xswdac_6.xi3.
                                            inv_bhv            1.00 
      695 xsar.xc_array_p.xsa_dac.xswdac_6.xi20.
                                            inv_bhv            1.00 
      696 xsar.xc_array_p.xsa_dac.xswdac_6.xi1.
                                            inv_bhv            1.00 
      697 xsar.xc_array_p.xsa_dac.xswdac_6.xi2.
                                            nand2_bhv          1.00 
      698 xsar.xc_array_p.xsa_dac.xswdac_6.xi19.
                                            nand2_bhv          1.00 
      699 xsar.xc_array_p.xsa_dac.xswdac_6.xswp.
                                            tgb                1.00 
      700 xsar.xc_array_p.xsa_dac.xswdac_6.xswn.
                                            tgb                1.00 
      701 xsar.xc_array_p.xsa_dac.xswdac_6.xswin.
                                            tgb                1.00 
      702 xsar.xc_array_p.xsa_dac.xswdac_7.xi7.
                                            inv_bhv            1.00 
      703 xsar.xc_array_p.xsa_dac.xswdac_7.xi3.
                                            inv_bhv            1.00 
      704 xsar.xc_array_p.xsa_dac.xswdac_7.xi20.
                                            inv_bhv            1.00 
      705 xsar.xc_array_p.xsa_dac.xswdac_7.xi1.
                                            inv_bhv            1.00 
      706 xsar.xc_array_p.xsa_dac.xswdac_7.xi2.
                                            nand2_bhv          1.00 
      707 xsar.xc_array_p.xsa_dac.xswdac_7.xi19.
                                            nand2_bhv          1.00 
      708 xsar.xc_array_p.xsa_dac.xswdac_7.xswp.
                                            tgb                1.00 
      709 xsar.xc_array_p.xsa_dac.xswdac_7.xswn.
                                            tgb                1.00 
      710 xsar.xc_array_p.xsa_dac.xswdac_7.xswin.
                                            tgb                1.00 
      711 xsar.xc_array_p.xsa_dac.xi1.xp1.
                                            pmos_b             1.00 
      712 xsar.xc_array_p.xsa_dac.xi1.xn1.
                                            nmos_b             1.00 
      713 xsar.xc_array_n.xsa_dac.xswdac_0.xi7.
                                            inv_bhv            1.00 
      714 xsar.xc_array_n.xsa_dac.xswdac_0.xi3.
                                            inv_bhv            1.00 
      715 xsar.xc_array_n.xsa_dac.xswdac_0.xi20.
                                            inv_bhv            1.00 
      716 xsar.xc_array_n.xsa_dac.xswdac_0.xi1.
                                            inv_bhv            1.00 
      717 xsar.xc_array_n.xsa_dac.xswdac_0.xi2.
                                            nand2_bhv          1.00 
      718 xsar.xc_array_n.xsa_dac.xswdac_0.xi19.
                                            nand2_bhv          1.00 
      719 xsar.xc_array_n.xsa_dac.xswdac_0.xswp.
                                            tgb                1.00 
      720 xsar.xc_array_n.xsa_dac.xswdac_0.xswn.
                                            tgb                1.00 
      721 xsar.xc_array_n.xsa_dac.xswdac_0.xswin.
                                            tgb                1.00 
      722 xsar.xc_array_n.xsa_dac.xswdac_1.xi7.
                                            inv_bhv            1.00 
      723 xsar.xc_array_n.xsa_dac.xswdac_1.xi3.
                                            inv_bhv            1.00 
      724 xsar.xc_array_n.xsa_dac.xswdac_1.xi20.
                                            inv_bhv            1.00 
      725 xsar.xc_array_n.xsa_dac.xswdac_1.xi1.
                                            inv_bhv            1.00 
      726 xsar.xc_array_n.xsa_dac.xswdac_1.xi2.
                                            nand2_bhv          1.00 
      727 xsar.xc_array_n.xsa_dac.xswdac_1.xi19.
                                            nand2_bhv          1.00 
      728 xsar.xc_array_n.xsa_dac.xswdac_1.xswp.
                                            tgb                1.00 
      729 xsar.xc_array_n.xsa_dac.xswdac_1.xswn.
                                            tgb                1.00 
      730 xsar.xc_array_n.xsa_dac.xswdac_1.xswin.
                                            tgb                1.00 
      731 xsar.xc_array_n.xsa_dac.xswdac_2.xi7.
                                            inv_bhv            1.00 
      732 xsar.xc_array_n.xsa_dac.xswdac_2.xi3.
                                            inv_bhv            1.00 
      733 xsar.xc_array_n.xsa_dac.xswdac_2.xi20.
                                            inv_bhv            1.00 
      734 xsar.xc_array_n.xsa_dac.xswdac_2.xi1.
                                            inv_bhv            1.00 
      735 xsar.xc_array_n.xsa_dac.xswdac_2.xi2.
                                            nand2_bhv          1.00 
      736 xsar.xc_array_n.xsa_dac.xswdac_2.xi19.
                                            nand2_bhv          1.00 
      737 xsar.xc_array_n.xsa_dac.xswdac_2.xswp.
                                            tgb                1.00 
      738 xsar.xc_array_n.xsa_dac.xswdac_2.xswn.
                                            tgb                1.00 
      739 xsar.xc_array_n.xsa_dac.xswdac_2.xswin.
                                            tgb                1.00 
      740 xsar.xc_array_n.xsa_dac.xswdac_3.xi7.
                                            inv_bhv            1.00 
      741 xsar.xc_array_n.xsa_dac.xswdac_3.xi3.
                                            inv_bhv            1.00 
      742 xsar.xc_array_n.xsa_dac.xswdac_3.xi20.
                                            inv_bhv            1.00 
      743 xsar.xc_array_n.xsa_dac.xswdac_3.xi1.
                                            inv_bhv            1.00 
      744 xsar.xc_array_n.xsa_dac.xswdac_3.xi2.
                                            nand2_bhv          1.00 
      745 xsar.xc_array_n.xsa_dac.xswdac_3.xi19.
                                            nand2_bhv          1.00 
      746 xsar.xc_array_n.xsa_dac.xswdac_3.xswp.
                                            tgb                1.00 
      747 xsar.xc_array_n.xsa_dac.xswdac_3.xswn.
                                            tgb                1.00 
      748 xsar.xc_array_n.xsa_dac.xswdac_3.xswin.
                                            tgb                1.00 
      749 xsar.xc_array_n.xsa_dac.xswdac_4.xi7.
                                            inv_bhv            1.00 
      750 xsar.xc_array_n.xsa_dac.xswdac_4.xi3.
                                            inv_bhv            1.00 
      751 xsar.xc_array_n.xsa_dac.xswdac_4.xi20.
                                            inv_bhv            1.00 
      752 xsar.xc_array_n.xsa_dac.xswdac_4.xi1.
                                            inv_bhv            1.00 
      753 xsar.xc_array_n.xsa_dac.xswdac_4.xi2.
                                            nand2_bhv          1.00 
      754 xsar.xc_array_n.xsa_dac.xswdac_4.xi19.
                                            nand2_bhv          1.00 
      755 xsar.xc_array_n.xsa_dac.xswdac_4.xswp.
                                            tgb                1.00 
      756 xsar.xc_array_n.xsa_dac.xswdac_4.xswn.
                                            tgb                1.00 
      757 xsar.xc_array_n.xsa_dac.xswdac_4.xswin.
                                            tgb                1.00 
      758 xsar.xc_array_n.xsa_dac.xswdac_5.xi7.
                                            inv_bhv            1.00 
      759 xsar.xc_array_n.xsa_dac.xswdac_5.xi3.
                                            inv_bhv            1.00 
      760 xsar.xc_array_n.xsa_dac.xswdac_5.xi20.
                                            inv_bhv            1.00 
      761 xsar.xc_array_n.xsa_dac.xswdac_5.xi1.
                                            inv_bhv            1.00 
      762 xsar.xc_array_n.xsa_dac.xswdac_5.xi2.
                                            nand2_bhv          1.00 
      763 xsar.xc_array_n.xsa_dac.xswdac_5.xi19.
                                            nand2_bhv          1.00 
      764 xsar.xc_array_n.xsa_dac.xswdac_5.xswp.
                                            tgb                1.00 
      765 xsar.xc_array_n.xsa_dac.xswdac_5.xswn.
                                            tgb                1.00 
      766 xsar.xc_array_n.xsa_dac.xswdac_5.xswin.
                                            tgb                1.00 
      767 xsar.xc_array_n.xsa_dac.xswdac_6.xi7.
                                            inv_bhv            1.00 
      768 xsar.xc_array_n.xsa_dac.xswdac_6.xi3.
                                            inv_bhv            1.00 
      769 xsar.xc_array_n.xsa_dac.xswdac_6.xi20.
                                            inv_bhv            1.00 
      770 xsar.xc_array_n.xsa_dac.xswdac_6.xi1.
                                            inv_bhv            1.00 
      771 xsar.xc_array_n.xsa_dac.xswdac_6.xi2.
                                            nand2_bhv          1.00 
      772 xsar.xc_array_n.xsa_dac.xswdac_6.xi19.
                                            nand2_bhv          1.00 
      773 xsar.xc_array_n.xsa_dac.xswdac_6.xswp.
                                            tgb                1.00 
      774 xsar.xc_array_n.xsa_dac.xswdac_6.xswn.
                                            tgb                1.00 
      775 xsar.xc_array_n.xsa_dac.xswdac_6.xswin.
                                            tgb                1.00 
      776 xsar.xc_array_n.xsa_dac.xswdac_7.xi7.
                                            inv_bhv            1.00 
      777 xsar.xc_array_n.xsa_dac.xswdac_7.xi3.
                                            inv_bhv            1.00 
      778 xsar.xc_array_n.xsa_dac.xswdac_7.xi20.
                                            inv_bhv            1.00 
      779 xsar.xc_array_n.xsa_dac.xswdac_7.xi1.
                                            inv_bhv            1.00 
      780 xsar.xc_array_n.xsa_dac.xswdac_7.xi2.
                                            nand2_bhv          1.00 
      781 xsar.xc_array_n.xsa_dac.xswdac_7.xi19.
                                            nand2_bhv          1.00 
      782 xsar.xc_array_n.xsa_dac.xswdac_7.xswp.
                                            tgb                1.00 
      783 xsar.xc_array_n.xsa_dac.xswdac_7.xswn.
                                            tgb                1.00 
      784 xsar.xc_array_n.xsa_dac.xswdac_7.xswin.
                                            tgb                1.00 
      785 xsar.xc_array_n.xsa_dac.xi1.xp1.
                                            pmos_b             1.00 
      786 xsar.xc_array_n.xsa_dac.xi1.xn1.
                                            nmos_b             1.00 
      787 xsar.xsa_logic.xdata3.xi1.xp1.  pmos_b             1.00 
      788 xsar.xsa_logic.xdata3.xi1.xn1.  nmos_b             1.00 
      789 xsar.xsa_logic.xdata3.xi42.xn1. nmos_b             1.00 
      790 xsar.xsa_logic.xdata3.xi42.xi9. nmos_b             1.00 
      791 xsar.xsa_logic.xdata3.xi42.xp1. pmos_b             1.00 
      792 xsar.xsa_logic.xdata3.xi42.xi10.
                                            pmos_b             1.00 
      793 xsar.xsa_logic.xdata3.xi43.xn1. nmos_b             1.00 
      794 xsar.xsa_logic.xdata3.xi43.xi9. nmos_b             1.00 
      795 xsar.xsa_logic.xdata3.xi43.xp1. pmos_b             1.00 
      796 xsar.xsa_logic.xdata3.xi43.xi10.
                                            pmos_b             1.00 
      797 xsar.xsa_logic.xdata3.xi31.xn1. nmos_b             1.00 
      798 xsar.xsa_logic.xdata3.xi31.xi9. nmos_b             1.00 
      799 xsar.xsa_logic.xdata3.xi31.xp1. pmos_b             1.00 
      800 xsar.xsa_logic.xdata3.xi31.xi10.
                                            pmos_b             1.00 
      801 xsar.xsa_logic.xdata3.xi37.xn1. nmos_b             1.00 
      802 xsar.xsa_logic.xdata3.xi37.xi9. nmos_b             1.00 
      803 xsar.xsa_logic.xdata3.xi37.xp1. pmos_b             1.00 
      804 xsar.xsa_logic.xdata3.xi37.xi10.
                                            pmos_b             1.00 
      805 xsar.xsa_logic.xdata2.xi1.xp1.  pmos_b             1.00 
      806 xsar.xsa_logic.xdata2.xi1.xn1.  nmos_b             1.00 
      807 xsar.xsa_logic.xdata2.xi42.xn1. nmos_b             1.00 
      808 xsar.xsa_logic.xdata2.xi42.xi9. nmos_b             1.00 
      809 xsar.xsa_logic.xdata2.xi42.xp1. pmos_b             1.00 
      810 xsar.xsa_logic.xdata2.xi42.xi10.
                                            pmos_b             1.00 
      811 xsar.xsa_logic.xdata2.xi43.xn1. nmos_b             1.00 
      812 xsar.xsa_logic.xdata2.xi43.xi9. nmos_b             1.00 
      813 xsar.xsa_logic.xdata2.xi43.xp1. pmos_b             1.00 
      814 xsar.xsa_logic.xdata2.xi43.xi10.
                                            pmos_b             1.00 
      815 xsar.xsa_logic.xdata2.xi31.xn1. nmos_b             1.00 
      816 xsar.xsa_logic.xdata2.xi31.xi9. nmos_b             1.00 
      817 xsar.xsa_logic.xdata2.xi31.xp1. pmos_b             1.00 
      818 xsar.xsa_logic.xdata2.xi31.xi10.
                                            pmos_b             1.00 
      819 xsar.xsa_logic.xdata2.xi37.xn1. nmos_b             1.00 
      820 xsar.xsa_logic.xdata2.xi37.xi9. nmos_b             1.00 
      821 xsar.xsa_logic.xdata2.xi37.xp1. pmos_b             1.00 
      822 xsar.xsa_logic.xdata2.xi37.xi10.
                                            pmos_b             1.00 
      823 xsar.xsa_logic.xdata1.xi1.xp1.  pmos_b             1.00 
      824 xsar.xsa_logic.xdata1.xi1.xn1.  nmos_b             1.00 
      825 xsar.xsa_logic.xdata1.xi42.xn1. nmos_b             1.00 
      826 xsar.xsa_logic.xdata1.xi42.xi9. nmos_b             1.00 
      827 xsar.xsa_logic.xdata1.xi42.xp1. pmos_b             1.00 
      828 xsar.xsa_logic.xdata1.xi42.xi10.
                                            pmos_b             1.00 
      829 xsar.xsa_logic.xdata1.xi43.xn1. nmos_b             1.00 
      830 xsar.xsa_logic.xdata1.xi43.xi9. nmos_b             1.00 
      831 xsar.xsa_logic.xdata1.xi43.xp1. pmos_b             1.00 
      832 xsar.xsa_logic.xdata1.xi43.xi10.
                                            pmos_b             1.00 
      833 xsar.xsa_logic.xdata1.xi31.xn1. nmos_b             1.00 
      834 xsar.xsa_logic.xdata1.xi31.xi9. nmos_b             1.00 
      835 xsar.xsa_logic.xdata1.xi31.xp1. pmos_b             1.00 
      836 xsar.xsa_logic.xdata1.xi31.xi10.
                                            pmos_b             1.00 
      837 xsar.xsa_logic.xdata1.xi37.xn1. nmos_b             1.00 
      838 xsar.xsa_logic.xdata1.xi37.xi9. nmos_b             1.00 
      839 xsar.xsa_logic.xdata1.xi37.xp1. pmos_b             1.00 
      840 xsar.xsa_logic.xdata1.xi37.xi10.
                                            pmos_b             1.00 
      841 xsar.xsa_logic.xdata0.xi1.xp1.  pmos_b             1.00 
      842 xsar.xsa_logic.xdata0.xi1.xn1.  nmos_b             1.00 
      843 xsar.xsa_logic.xdata0.xi42.xn1. nmos_b             1.00 
      844 xsar.xsa_logic.xdata0.xi42.xi9. nmos_b             1.00 
      845 xsar.xsa_logic.xdata0.xi42.xp1. pmos_b             1.00 
      846 xsar.xsa_logic.xdata0.xi42.xi10.
                                            pmos_b             1.00 
      847 xsar.xsa_logic.xdata0.xi43.xn1. nmos_b             1.00 
      848 xsar.xsa_logic.xdata0.xi43.xi9. nmos_b             1.00 
      849 xsar.xsa_logic.xdata0.xi43.xp1. pmos_b             1.00 
      850 xsar.xsa_logic.xdata0.xi43.xi10.
                                            pmos_b             1.00 
      851 xsar.xsa_logic.xdata0.xi31.xn1. nmos_b             1.00 
      852 xsar.xsa_logic.xdata0.xi31.xi9. nmos_b             1.00 
      853 xsar.xsa_logic.xdata0.xi31.xp1. pmos_b             1.00 
      854 xsar.xsa_logic.xdata0.xi31.xi10.
                                            pmos_b             1.00 
      855 xsar.xsa_logic.xdata0.xi37.xn1. nmos_b             1.00 
      856 xsar.xsa_logic.xdata0.xi37.xi9. nmos_b             1.00 
      857 xsar.xsa_logic.xdata0.xi37.xp1. pmos_b             1.00 
      858 xsar.xsa_logic.xdata0.xi37.xi10.
                                            pmos_b             1.00 
      859 xsar.xsa_logic.xdata5.xi1.xp1.  pmos_b             1.00 
      860 xsar.xsa_logic.xdata5.xi1.xn1.  nmos_b             1.00 
      861 xsar.xsa_logic.xdata5.xi42.xn1. nmos_b             1.00 
      862 xsar.xsa_logic.xdata5.xi42.xi9. nmos_b             1.00 
      863 xsar.xsa_logic.xdata5.xi42.xp1. pmos_b             1.00 
      864 xsar.xsa_logic.xdata5.xi42.xi10.
                                            pmos_b             1.00 
      865 xsar.xsa_logic.xdata5.xi43.xn1. nmos_b             1.00 
      866 xsar.xsa_logic.xdata5.xi43.xi9. nmos_b             1.00 
      867 xsar.xsa_logic.xdata5.xi43.xp1. pmos_b             1.00 
      868 xsar.xsa_logic.xdata5.xi43.xi10.
                                            pmos_b             1.00 
      869 xsar.xsa_logic.xdata5.xi31.xn1. nmos_b             1.00 
      870 xsar.xsa_logic.xdata5.xi31.xi9. nmos_b             1.00 
      871 xsar.xsa_logic.xdata5.xi31.xp1. pmos_b             1.00 
      872 xsar.xsa_logic.xdata5.xi31.xi10.
                                            pmos_b             1.00 
      873 xsar.xsa_logic.xdata5.xi37.xn1. nmos_b             1.00 
      874 xsar.xsa_logic.xdata5.xi37.xi9. nmos_b             1.00 
      875 xsar.xsa_logic.xdata5.xi37.xp1. pmos_b             1.00 
      876 xsar.xsa_logic.xdata5.xi37.xi10.
                                            pmos_b             1.00 
      877 xsar.xsa_logic.xrsh0.xi1.xp1.   pmos_b             1.00 
      878 xsar.xsa_logic.xrsh0.xi1.xn1.   nmos_b             1.00 
      879 xsar.xsa_logic.xrsh0.xi42.xn1.  nmos_b             1.00 
      880 xsar.xsa_logic.xrsh0.xi42.xi9.  nmos_b             1.00 
      881 xsar.xsa_logic.xrsh0.xi42.xp1.  pmos_b             1.00 
      882 xsar.xsa_logic.xrsh0.xi42.xi10. pmos_b             1.00 
      883 xsar.xsa_logic.xrsh0.xi43.xn1.  nmos_b             1.00 
      884 xsar.xsa_logic.xrsh0.xi43.xi9.  nmos_b             1.00 
      885 xsar.xsa_logic.xrsh0.xi43.xp1.  pmos_b             1.00 
      886 xsar.xsa_logic.xrsh0.xi43.xi10. pmos_b             1.00 
      887 xsar.xsa_logic.xrsh0.xi31.xn1.  nmos_b             1.00 
      888 xsar.xsa_logic.xrsh0.xi31.xi9.  nmos_b             1.00 
      889 xsar.xsa_logic.xrsh0.xi31.xp1.  pmos_b             1.00 
      890 xsar.xsa_logic.xrsh0.xi31.xi10. pmos_b             1.00 
      891 xsar.xsa_logic.xrsh0.xi37.xn1.  nmos_b             1.00 
      892 xsar.xsa_logic.xrsh0.xi37.xi9.  nmos_b             1.00 
      893 xsar.xsa_logic.xrsh0.xi37.xp1.  pmos_b             1.00 
      894 xsar.xsa_logic.xrsh0.xi37.xi10. pmos_b             1.00 
      895 xsar.xsa_logic.xrsh3.xi1.xp1.   pmos_b             1.00 
      896 xsar.xsa_logic.xrsh3.xi1.xn1.   nmos_b             1.00 
      897 xsar.xsa_logic.xrsh3.xi42.xn1.  nmos_b             1.00 
      898 xsar.xsa_logic.xrsh3.xi42.xi9.  nmos_b             1.00 
      899 xsar.xsa_logic.xrsh3.xi42.xp1.  pmos_b             1.00 
      900 xsar.xsa_logic.xrsh3.xi42.xi10. pmos_b             1.00 
      901 xsar.xsa_logic.xrsh3.xi43.xn1.  nmos_b             1.00 
      902 xsar.xsa_logic.xrsh3.xi43.xi9.  nmos_b             1.00 
      903 xsar.xsa_logic.xrsh3.xi43.xp1.  pmos_b             1.00 
      904 xsar.xsa_logic.xrsh3.xi43.xi10. pmos_b             1.00 
      905 xsar.xsa_logic.xrsh3.xi31.xn1.  nmos_b             1.00 
      906 xsar.xsa_logic.xrsh3.xi31.xi9.  nmos_b             1.00 
      907 xsar.xsa_logic.xrsh3.xi31.xp1.  pmos_b             1.00 
      908 xsar.xsa_logic.xrsh3.xi31.xi10. pmos_b             1.00 
      909 xsar.xsa_logic.xrsh3.xi37.xn1.  nmos_b             1.00 
      910 xsar.xsa_logic.xrsh3.xi37.xi9.  nmos_b             1.00 
      911 xsar.xsa_logic.xrsh3.xi37.xp1.  pmos_b             1.00 
      912 xsar.xsa_logic.xrsh3.xi37.xi10. pmos_b             1.00 
      913 xsar.xsa_logic.xrsh2.xi1.xp1.   pmos_b             1.00 
      914 xsar.xsa_logic.xrsh2.xi1.xn1.   nmos_b             1.00 
      915 xsar.xsa_logic.xrsh2.xi42.xn1.  nmos_b             1.00 
      916 xsar.xsa_logic.xrsh2.xi42.xi9.  nmos_b             1.00 
      917 xsar.xsa_logic.xrsh2.xi42.xp1.  pmos_b             1.00 
      918 xsar.xsa_logic.xrsh2.xi42.xi10. pmos_b             1.00 
      919 xsar.xsa_logic.xrsh2.xi43.xn1.  nmos_b             1.00 
      920 xsar.xsa_logic.xrsh2.xi43.xi9.  nmos_b             1.00 
      921 xsar.xsa_logic.xrsh2.xi43.xp1.  pmos_b             1.00 
      922 xsar.xsa_logic.xrsh2.xi43.xi10. pmos_b             1.00 
      923 xsar.xsa_logic.xrsh2.xi31.xn1.  nmos_b             1.00 
      924 xsar.xsa_logic.xrsh2.xi31.xi9.  nmos_b             1.00 
      925 xsar.xsa_logic.xrsh2.xi31.xp1.  pmos_b             1.00 
      926 xsar.xsa_logic.xrsh2.xi31.xi10. pmos_b             1.00 
      927 xsar.xsa_logic.xrsh2.xi37.xn1.  nmos_b             1.00 
      928 xsar.xsa_logic.xrsh2.xi37.xi9.  nmos_b             1.00 
      929 xsar.xsa_logic.xrsh2.xi37.xp1.  pmos_b             1.00 
      930 xsar.xsa_logic.xrsh2.xi37.xi10. pmos_b             1.00 
      931 xsar.xsa_logic.xrsh1.xi1.xp1.   pmos_b             1.00 
      932 xsar.xsa_logic.xrsh1.xi1.xn1.   nmos_b             1.00 
      933 xsar.xsa_logic.xrsh1.xi42.xn1.  nmos_b             1.00 
      934 xsar.xsa_logic.xrsh1.xi42.xi9.  nmos_b             1.00 
      935 xsar.xsa_logic.xrsh1.xi42.xp1.  pmos_b             1.00 
      936 xsar.xsa_logic.xrsh1.xi42.xi10. pmos_b             1.00 
      937 xsar.xsa_logic.xrsh1.xi43.xn1.  nmos_b             1.00 
      938 xsar.xsa_logic.xrsh1.xi43.xi9.  nmos_b             1.00 
      939 xsar.xsa_logic.xrsh1.xi43.xp1.  pmos_b             1.00 
      940 xsar.xsa_logic.xrsh1.xi43.xi10. pmos_b             1.00 
      941 xsar.xsa_logic.xrsh1.xi31.xn1.  nmos_b             1.00 
      942 xsar.xsa_logic.xrsh1.xi31.xi9.  nmos_b             1.00 
      943 xsar.xsa_logic.xrsh1.xi31.xp1.  pmos_b             1.00 
      944 xsar.xsa_logic.xrsh1.xi31.xi10. pmos_b             1.00 
      945 xsar.xsa_logic.xrsh1.xi37.xn1.  nmos_b             1.00 
      946 xsar.xsa_logic.xrsh1.xi37.xi9.  nmos_b             1.00 
      947 xsar.xsa_logic.xrsh1.xi37.xp1.  pmos_b             1.00 
      948 xsar.xsa_logic.xrsh1.xi37.xi10. pmos_b             1.00 
      949 xsar.xsa_logic.xrsh4.xi1.xp1.   pmos_b             1.00 
      950 xsar.xsa_logic.xrsh4.xi1.xn1.   nmos_b             1.00 
      951 xsar.xsa_logic.xrsh4.xi42.xn1.  nmos_b             1.00 
      952 xsar.xsa_logic.xrsh4.xi42.xi9.  nmos_b             1.00 
      953 xsar.xsa_logic.xrsh4.xi42.xp1.  pmos_b             1.00 
      954 xsar.xsa_logic.xrsh4.xi42.xi10. pmos_b             1.00 
      955 xsar.xsa_logic.xrsh4.xi43.xn1.  nmos_b             1.00 
      956 xsar.xsa_logic.xrsh4.xi43.xi9.  nmos_b             1.00 
      957 xsar.xsa_logic.xrsh4.xi43.xp1.  pmos_b             1.00 
      958 xsar.xsa_logic.xrsh4.xi43.xi10. pmos_b             1.00 
      959 xsar.xsa_logic.xrsh4.xi31.xn1.  nmos_b             1.00 
      960 xsar.xsa_logic.xrsh4.xi31.xi9.  nmos_b             1.00 
      961 xsar.xsa_logic.xrsh4.xi31.xp1.  pmos_b             1.00 
      962 xsar.xsa_logic.xrsh4.xi31.xi10. pmos_b             1.00 
      963 xsar.xsa_logic.xrsh4.xi37.xn1.  nmos_b             1.00 
      964 xsar.xsa_logic.xrsh4.xi37.xi9.  nmos_b             1.00 
      965 xsar.xsa_logic.xrsh4.xi37.xp1.  pmos_b             1.00 
      966 xsar.xsa_logic.xrsh4.xi37.xi10. pmos_b             1.00 
      967 xsar.xsa_logic.xdata7.xi1.xp1.  pmos_b             1.00 
      968 xsar.xsa_logic.xdata7.xi1.xn1.  nmos_b             1.00 
      969 xsar.xsa_logic.xdata7.xi42.xn1. nmos_b             1.00 
      970 xsar.xsa_logic.xdata7.xi42.xi9. nmos_b             1.00 
      971 xsar.xsa_logic.xdata7.xi42.xp1. pmos_b             1.00 
      972 xsar.xsa_logic.xdata7.xi42.xi10.
                                            pmos_b             1.00 
      973 xsar.xsa_logic.xdata7.xi43.xn1. nmos_b             1.00 
      974 xsar.xsa_logic.xdata7.xi43.xi9. nmos_b             1.00 
      975 xsar.xsa_logic.xdata7.xi43.xp1. pmos_b             1.00 
      976 xsar.xsa_logic.xdata7.xi43.xi10.
                                            pmos_b             1.00 
      977 xsar.xsa_logic.xdata7.xi31.xn1. nmos_b             1.00 
      978 xsar.xsa_logic.xdata7.xi31.xi9. nmos_b             1.00 
      979 xsar.xsa_logic.xdata7.xi31.xp1. pmos_b             1.00 
      980 xsar.xsa_logic.xdata7.xi31.xi10.
                                            pmos_b             1.00 
      981 xsar.xsa_logic.xdata7.xi37.xn1. nmos_b             1.00 
      982 xsar.xsa_logic.xdata7.xi37.xi9. nmos_b             1.00 
      983 xsar.xsa_logic.xdata7.xi37.xp1. pmos_b             1.00 
      984 xsar.xsa_logic.xdata7.xi37.xi10.
                                            pmos_b             1.00 
      985 xsar.xsa_logic.xrsh5.xi1.xp1.   pmos_b             1.00 
      986 xsar.xsa_logic.xrsh5.xi1.xn1.   nmos_b             1.00 
      987 xsar.xsa_logic.xrsh5.xi42.xn1.  nmos_b             1.00 
      988 xsar.xsa_logic.xrsh5.xi42.xi9.  nmos_b             1.00 
      989 xsar.xsa_logic.xrsh5.xi42.xp1.  pmos_b             1.00 
      990 xsar.xsa_logic.xrsh5.xi42.xi10. pmos_b             1.00 
      991 xsar.xsa_logic.xrsh5.xi43.xn1.  nmos_b             1.00 
      992 xsar.xsa_logic.xrsh5.xi43.xi9.  nmos_b             1.00 
      993 xsar.xsa_logic.xrsh5.xi43.xp1.  pmos_b             1.00 
      994 xsar.xsa_logic.xrsh5.xi43.xi10. pmos_b             1.00 
      995 xsar.xsa_logic.xrsh5.xi31.xn1.  nmos_b             1.00 
      996 xsar.xsa_logic.xrsh5.xi31.xi9.  nmos_b             1.00 
      997 xsar.xsa_logic.xrsh5.xi31.xp1.  pmos_b             1.00 
      998 xsar.xsa_logic.xrsh5.xi31.xi10. pmos_b             1.00 
      999 xsar.xsa_logic.xrsh5.xi37.xn1.  nmos_b             1.00 
     1000 xsar.xsa_logic.xrsh5.xi37.xi9.  nmos_b             1.00 
     1001 xsar.xsa_logic.xrsh5.xi37.xp1.  pmos_b             1.00 
     1002 xsar.xsa_logic.xrsh5.xi37.xi10. pmos_b             1.00 
     1003 xsar.xsa_logic.xdata6.xi1.xp1.  pmos_b             1.00 
     1004 xsar.xsa_logic.xdata6.xi1.xn1.  nmos_b             1.00 
     1005 xsar.xsa_logic.xdata6.xi42.xn1. nmos_b             1.00 
     1006 xsar.xsa_logic.xdata6.xi42.xi9. nmos_b             1.00 
     1007 xsar.xsa_logic.xdata6.xi42.xp1. pmos_b             1.00 
     1008 xsar.xsa_logic.xdata6.xi42.xi10.
                                            pmos_b             1.00 
     1009 xsar.xsa_logic.xdata6.xi43.xn1. nmos_b             1.00 
     1010 xsar.xsa_logic.xdata6.xi43.xi9. nmos_b             1.00 
     1011 xsar.xsa_logic.xdata6.xi43.xp1. pmos_b             1.00 
     1012 xsar.xsa_logic.xdata6.xi43.xi10.
                                            pmos_b             1.00 
     1013 xsar.xsa_logic.xdata6.xi31.xn1. nmos_b             1.00 
     1014 xsar.xsa_logic.xdata6.xi31.xi9. nmos_b             1.00 
[...]
 +   0:iref_3  =   0.         0:out_int2= 900.0000m    0:out_int2= 900.0000m
 +   0:p1      =   0.         0:p1_b    =   1.8000     0:p1d     =   0.     
 +   0:p1d_b   =   1.8000     0:p2      =   0.         0:p2_b    =   1.8000 
 +   0:p2d     =   0.         0:p2d_b   =   1.8000     0:pdn     =   0.     
 +   0:psamp   =   0.         0:rst     =   0.         0:rst_b   =   1.8000 
 +   0:rst_matl=   0.         0:sa_0    =   1.8000     0:sa_1    =   1.8000 
 +   0:sa_2    =   1.8000     0:sa_3    =   1.8000     0:sa_4    =   1.8000 
 +   0:sa_5    =   1.8000     0:sa_6    =   1.8000     0:sa_7    =   1.8000 
 +   0:sa_b_0  =  36.0000f    0:sa_b_1  =  36.0000f    0:sa_b_2  =  36.0000f
 +   0:sa_b_3  =  36.0000f    0:sa_b_4  =  36.0000f    0:sa_b_5  =  36.0000f
 +   0:sa_b_6  =  36.0000f    0:sa_b_7  =  18.0000f    0:vcm     = 900.0000m
 +   0:vcm1    = 900.0000m    0:vrefn   =   0.         0:vrefp   =   1.8000 
 +   1:out_int1= 900.0000m    1:out_int1= 900.0000m    1:pvrefn  =  18.0000f
 +   1:pvrefn_b=   1.8000     1:pvrefp  =  18.0000f    1:pvrefp_b=   1.8000 
 +   2:clk_b   =   1.8000     2:cmp_inn = 899.0833u    2:cmp_inp = 899.1185u
 +   2:cmp_out = 351.3866u    2:db_0    =   1.8000     2:db_1    =   1.8000 
 +   2:db_2    =   1.8000     2:db_3    =   1.8000     2:db_4    =   1.8000 
 +   2:db_5    =   1.8000     2:db_6    =   1.8000     2:db_7    =  18.0000f
 +   2:n_sw_0  = 901.4047m    2:n_sw_1  = 900.6776m    2:n_sw_2  = 900.6776m
 +   2:n_sw_3  = 900.6776m    2:n_sw_4  = 900.6776m    2:n_sw_5  = 900.6776m
 +   2:n_sw_6  = 901.1285m    2:n_sw_7  =   1.8000     2:n_sw_b_0= 899.2686m
 +   2:n_sw_b_1= 899.6729m    2:n_sw_b_2= 899.6729m    2:n_sw_b_3= 899.6729m
 +   2:n_sw_b_4= 899.6729m    2:n_sw_b_5= 899.6729m    2:n_sw_b_6= 899.6723m
 +   2:n_sw_b_7=  18.0000f    2:net23   =   1.8000     2:pdac    =  18.0000f
 +   2:psamp_b =   1.8000     3:cinn    = 449.5956u    3:cinp    = 449.5956u
 +   3:dacn    = 887.3939u    3:dacp    = 910.8079u    3:opin    =  90.3143u
 +   3:opip    =  90.3143u    3:sar_cinn= 449.5956u    3:sar_cinn= 449.5956u
 +   3:sar_cinn= 449.5956u    3:sar_cinn= 449.5956u    3:sar_cinn= 449.5956u
 +   3:sar_cinn= 449.5956u    3:sar_cinn= 449.5956u    3:sar_cinn= 449.5956u
 +   3:sar_cinp= 449.5956u    3:sar_cinp= 449.5956u    3:sar_cinp= 449.5956u
 +   3:sar_cinp= 449.5956u    3:sar_cinp= 449.5956u    3:sar_cinp= 449.5956u
 +   3:sar_cinp= 449.5956u    3:sar_cinp= 449.5956u    3:sar_dacn=  35.9640a
 +   3:sar_dacn=  35.9640a    3:sar_dacn=  35.9640a    3:sar_dacn=  35.9640a
 +   3:sar_dacn=  35.9640a    3:sar_dacn=  35.9640a    3:sar_dacn=  35.9640a
 +   3:sar_dacn=  17.9820a    3:sar_dacp=   1.7982m    3:sar_dacp=   1.7982m
 +   3:sar_dacp=   1.7982m    3:sar_dacp=   1.7982m    3:sar_dacp=   1.7982m
 +   3:sar_dacp=   1.7982m    3:sar_dacp=   1.7982m    3:sar_dacp=   1.7982m
 +   4:cinn    = 449.7751u    4:cinp    = 449.7751u    4:dacn    = 899.1009u
 +   4:dacp    = 899.1009u    4:opin    = 449.7751u    4:opip    = 449.7751u
 +   5:amp_n   = 900.0000m    5:amp_p   = 900.0000m    5:d_b     =  18.0000f
 +   5:net0107 = 899.1009u    5:net0137 = 899.1009u    5:net0155 = 899.1009u
 +   5:net0161 = 899.1009u    5:net082  = 881.5403u    5:net088  = 916.6615u
 +   5:opin    = 899.1009u    5:opip    = 899.1009u    6:d_b     =  18.0000f
 +   6:net43   =   1.8000     6:net48   =   1.8000     7:vout1   = 351.3866u
 +   8:dac_0   =   1.8000     8:dac_1   =   1.8000     8:dac_2   =   1.8000 
 +   8:dac_3   =   1.8000     8:dac_4   =   1.8000     8:dac_5   =   1.8000 
 +   8:dac_6   =   1.8000     8:dac_7   =  36.0000f    8:net023  = 898.2031n
 +   8:net30   = 899.1013u    9:dac_0   = 905.5868m    9:dac_1   = 902.2684m
 +   9:dac_2   = 902.2684m    9:dac_3   = 902.2684m    9:dac_4   = 902.2684m
 +   9:dac_5   = 902.2684m    9:dac_6   = 903.5969m    9:dac_7   =   1.8000 
 +   9:net023  = 898.2031n    9:net30   = 899.1013u   10:net383  =   1.8000 
 +  10:q0      = 900.0317m   10:q1      = 899.8071m   10:q2      = 899.8071m
 +  10:q3      = 899.8071m   10:q4      = 899.8071m   10:q5      = 899.8071m
 +  10:q6      = 899.8074m   10:q7      =  28.7923f   10:qb0     = 898.5955m
 +  10:qb1     = 898.9995m   10:qb2     = 898.9995m   10:qb3     = 898.9995m
 +  10:qb4     = 898.9995m   10:qb5     = 898.9995m   10:qb6     = 898.9989m
 +  10:qb7     =   1.8000    11:clkb    =   1.8000    11:dff1    =   1.8000 
 +  11:dff2    =  18.0000f   11:dff3    =  18.0000f   11:net41   =   1.8000 
 +  11:net54   =   1.8000    11:net69   =  18.0000f   12:clkb    =   1.8000 
 +  12:dff1    =  18.0000f   12:dff2    =   1.8000    12:dff3    =  54.0000f
 +  12:net41   =  18.0000f   12:net54   =   1.8000    12:net69   =   1.8000 
 +  13:clkb    =   1.8000    13:dff1    =  18.0000f   13:dff2    =   1.8000 
 +  13:dff3    =  54.0000f   13:net41   =  18.0000f   13:net54   =   1.8000 
 +  13:net69   =   1.8000    14:clkb    =   1.8000    14:dff1    =  18.0000f
 +  14:dff2    =   1.8000    14:dff3    =  54.0000f   14:net41   =  18.0000f
 +  14:net54   =   1.8000    14:net69   =   1.8000    15:clkb    =   1.8000 
 +  15:dff1    =  18.0000f   15:dff2    =   1.8000    15:dff3    =  54.0000f
 +  15:net41   =  18.0000f   15:net54   =   1.8000    15:net69   =   1.8000 
 +  16:clkb    =   1.8000    16:dff1    =  18.0000f   16:dff2    =   1.8000 
 +  16:dff3    =  54.0000f   16:net41   =  18.0000f   16:net54   =   1.8000 
 +  16:net69   =   1.8000    17:clkb    =   1.8000    17:dff1    =  18.0000f
 +  17:dff2    =   1.8000    17:dff3    =  54.0000f   17:net41   =  18.0000f
 +  17:net54   =   1.8000    17:net69   =   1.8000    18:clkb    =   1.8000 
 +  18:dff1    =  18.0000f   18:dff2    =   1.8000    18:dff3    =  54.0000f
 +  18:net41   =  18.0000f   18:net54   =   1.8000    18:net69   =   1.8000 
 +  19:net8    =  18.0000f   20:net23   =   1.8000    21:net23   =  18.0000f
 +  22:net23   =   1.8000    80:vcmi    = 900.0000m   91:vcmi    = 900.0000m
 +  92:on1     =  13.8778f   92:op1     = -13.8778f   92:vcm1    = 900.0000m
 +  93:net22   = 1.800e-27   94:net23   =   1.8000   109:net23   =   1.8000 
 + 110:net23   =  18.0000f  111:net23   =  18.0000f  112:net23   =  18.0000f
 + 113:net23   =   1.8000   114:net8    = 899.1009u  115:net8    =   1.8000 
 + 116:pdac_b  =   1.8000   118:pdac_b  =   1.8000   120:net23   =   1.8000 
 + 121:net16   =  36.0000f  122:net16   =   1.8000   123:net16   =   1.8000 
 + 124:net16   =   1.8000   125:net16   =   1.8000   126:net16   =   1.8000 
 + 127:net16   =   1.8000   128:net16   =   1.8000   129:net8    = 900.6776m
 + 130:net8    =   1.8000   131:net8    =  17.9955n  132:net8    = 900.6776m
 + 133:net8    = 900.6776m  134:net8    = 900.6776m  135:net8    = 900.6776m
 + 136:net8    = 901.4046m  137:clkb    = 901.3522m  137:dff1    =   1.7991 
 + 137:dff2    =  18.1822f  137:dff3    =  18.0818f  137:net41   =   1.8000 
 + 137:net54   =   1.8000   137:net69   =  18.1822f  138:clkb    = 901.3522m
 + 138:dff1    =   1.7991   138:dff2    =  18.1822f  138:dff3    =  18.0818f
 + 138:net41   =   1.8000   138:net54   =   1.8000   138:net69   =  18.1822f
 + 139:clkb    = 901.3522m  139:dff1    =   1.7991   139:dff2    =  18.1822f
 + 139:dff3    =  18.0818f  139:net41   =   1.8000   139:net54   =   1.8000 
 + 139:net69   =  18.1822f  140:clkb    = 902.0798m  140:dff1    =   1.7991 
 + 140:dff2    =  18.1821f  140:dff3    =  18.0817f  140:net41   =   1.8000 
 + 140:net54   =   1.8000   140:net69   =  18.1821f  141:clkb    = 901.3522m
 + 141:dff1    =   1.7991   141:dff2    =  18.1822f  141:dff3    =  18.0818f
 + 141:net41   =   1.8000   141:net54   =   1.8000   141:net69   =  18.1822f
 + 142:clkb    =  18.0000f  142:dff1    = 899.3583m  142:dff2    = 899.3582m
 + 142:dff3    = 899.3582m  142:net41   = 899.3583m  142:net54   = 900.0317m
 + 142:net69   = 899.3582m  143:clkb    =  18.0000f  143:dff1    = 899.3583m
 + 143:dff2    = 899.3582m  143:dff3    = 899.3582m  143:net41   = 899.3583m
 + 143:net54   = 899.8071m  143:net69   = 899.3582m  144:clkb    =  18.0000f
 + 144:dff1    = 899.3583m  144:dff2    = 899.3582m  144:dff3    = 899.3582m
 + 144:net41   = 899.3583m  144:net54   = 899.8071m  144:net69   = 899.3582m
 + 145:clkb    =  18.0000f  145:dff1    = 899.3583m  145:dff2    = 899.3582m
 + 145:dff3    = 899.3582m  145:net41   = 899.3583m  145:net54   = 899.8071m
 + 145:net69   = 899.3582m  146:clkb    =  18.0000f  146:dff1    = 899.3583m
 + 146:dff2    = 899.3582m  146:dff3    = 899.3582m  146:net41   = 899.3583m
 + 146:net54   = 899.8071m  146:net69   = 899.3582m  147:clkb    =  18.0000f
 + 147:dff1    =  54.0000f  147:dff2    =   1.8000   147:dff3    =   1.8000 
 + 147:net41   =  36.0000f  147:net54   =  18.0000f  147:net69   =   1.8000 
 + 148:clkb    =  18.0000f  148:dff1    = 899.3583m  148:dff2    = 899.3582m
 + 148:dff3    = 899.3582m  148:net41   = 899.3583m  148:net54   = 899.8071m
 + 148:net69   = 899.3582m  149:clkb    = 901.3533m  149:dff1    =   1.7991 
 + 149:dff2    =  18.1822f  149:dff3    =  18.0818f  149:net41   =   1.8000 
 + 149:net54   =   1.8000   149:net69   =  18.1822f  150:clkb    = 901.3522m
 + 150:dff1    =   1.7991   150:dff2    =  18.1822f  150:dff3    =  18.0818f
 + 150:net41   =   1.8000   150:net54   =   1.8000   150:net69   =  18.1822f
 + 151:clkb    =  18.0000f  151:dff1    = 899.3584m  151:dff2    = 899.3581m
 + 151:dff3    = 899.3581m  151:net41   = 899.3584m  151:net54   = 899.8074m
 + 151:net69   = 899.3581m  152:clkb    =  18.0000f  152:dff1    =  18.0000f
 + 152:dff2    =   1.8000   152:dff3    =   1.8000   152:net41   =  18.0000f
 + 152:net54   =  26.9936f  152:net69   =   1.8000   153:net23   =   1.8000 
 + 158:net16   =   1.8000   159:net16   =  36.0000f  160:net16   =  36.0000f
 + 161:net16   =   1.8000   162:net23   =   1.8000   167:net16   =  36.0000f
 + 168:net16   =  54.0000f  169:net16   =   1.8000   170:net16   =   1.8000 
 + 171:net23   =   1.8000   176:net16   =  36.0000f  177:net16   =  54.0000f
 + 178:net16   =   1.8000   179:net16   =   1.8000   180:net23   =   1.8000 
 + 185:net16   =  36.0000f  186:net16   =  54.0000f  187:net16   =   1.8000 
 + 188:net16   =   1.8000   189:net23   =   1.8000   194:net16   =  36.0000f
 + 195:net16   =  54.0000f  196:net16   =   1.8000   197:net16   =   1.8000 
 + 198:net23   =   1.8000   203:net16   =  36.0000f  204:net16   =  54.0000f
 + 205:net16   =   1.8000   206:net16   =   1.8000   207:net23   =   1.8000 
 + 212:net16   =  36.0000f  213:net16   =  54.0000f  214:net16   =   1.8000 
 + 215:net16   =   1.8000   216:net23   =   1.8000   221:net16   =  36.0000f
 + 222:net16   =  54.0000f  223:net16   =   1.8000   224:net16   =   1.8000 
 + 239:net275  =  18.0000f  240:vout1   =   0.       261:net049  =   1.8000 
 + 261:net054  =  72.0000f  261:pvrefn  =  18.0000f  261:pvrefn_b=   1.8000 
 + 261:pvrefp  =   1.8000   261:pvrefp_b=  18.0000f  262:net049  =   1.8000 
 + 262:net054  =  72.0000f  262:pvrefn  =  18.0000f  262:pvrefn_b=   1.8000 
 + 262:pvrefp  =   1.8000   262:pvrefp_b=  18.0000f  263:net049  =   1.8000 
 + 263:net054  =  72.0000f  263:pvrefn  =  18.0000f  263:pvrefn_b=   1.8000 
 + 263:pvrefp  =   1.8000   263:pvrefp_b=  18.0000f  264:net049  =   1.8000 
 + 264:net054  =  72.0000f  264:pvrefn  =  18.0000f  264:pvrefn_b=   1.8000 
 + 264:pvrefp  =   1.8000   264:pvrefp_b=  18.0000f  265:net049  =   1.8000 
 + 265:net054  =  72.0000f  265:pvrefn  =  18.0000f  265:pvrefn_b=   1.8000 
 + 265:pvrefp  =   1.8000   265:pvrefp_b=  18.0000f  266:net049  =   1.8000 
 + 266:net054  =  72.0000f  266:pvrefn  =  18.0000f  266:pvrefn_b=   1.8000 
 + 266:pvrefp  =   1.8000   266:pvrefp_b=  18.0000f  267:net049  =   1.8000 
 + 267:net054  =  72.0000f  267:pvrefn  =  18.0000f  267:pvrefn_b=   1.8000 
 + 267:pvrefp  =   1.8000   267:pvrefp_b=  18.0000f  268:net049  =  72.0000f
 + 268:net054  =   1.8000   268:pvrefn  =   1.8000   268:pvrefn_b=  18.0000f
 + 268:pvrefp  =  18.0000f  268:pvrefp_b=   1.8000   269:net23   =   1.8000 
 + 272:net049  = 900.6429m  272:net054  = 896.7971m  272:pvrefn  = 898.3927m
 + 272:pvrefn_b= 902.4451m  272:pvrefp  = 905.3186m  272:pvrefp_b= 889.9722m
 + 273:net049  = 899.9150m  273:net054  = 898.1060m  273:pvrefn  = 899.7036m
 + 273:pvrefn_b= 900.0843m  273:pvrefp  = 902.9613m  273:pvrefp_b= 894.2174m
 + 274:net049  = 899.9150m  274:net054  = 898.1060m  274:pvrefn  = 899.7036m
 + 274:pvrefn_b= 900.0843m  274:pvrefp  = 902.9613m  274:pvrefp_b= 894.2174m
 + 275:net049  = 899.9150m  275:net054  = 898.1060m  275:pvrefn  = 899.7036m
 + 275:pvrefn_b= 900.0843m  275:pvrefp  = 902.9613m  275:pvrefp_b= 894.2174m
 + 276:net049  = 899.9150m  276:net054  = 898.1060m  276:pvrefn  = 899.7036m
 + 276:pvrefn_b= 900.0843m  276:pvrefp  = 902.9613m  276:pvrefp_b= 894.2175m
 + 277:net049  = 899.9150m  277:net054  = 898.1060m  277:pvrefn  = 899.7036m
 + 277:pvrefn_b= 900.0843m  277:pvrefp  = 902.9613m  277:pvrefp_b= 894.2175m
 + 278:net049  = 899.9160m  278:net054  = 897.2943m  278:pvrefn  = 899.7016m
 + 278:pvrefn_b= 900.0877m  278:pvrefp  = 904.4231m  278:pvrefp_b= 891.5848m
 + 279:net049  =   1.8000   279:net054  =  72.0000f  279:pvrefn  =  18.0000f
 + 279:pvrefn_b=   1.8000   279:pvrefp  =   1.8000   279:pvrefp_b=  18.0000f
 + 280:net23   =   1.8000   349:net23   = 901.3522m  354:net16   =   1.8000 
 + 355:net16   =  36.0000f  356:net16   =  36.2004f  357:net16   =   1.8000 
 + 358:net23   = 901.3522m  363:net16   =   1.8000   364:net16   =  36.0000f
 + 365:net16   =  36.2004f  366:net16   =   1.8000   367:net23   = 901.3522m
 + 372:net16   =   1.8000   373:net16   =  36.0000f  374:net16   =  36.2004f
 + 375:net16   =   1.8000   376:net23   = 902.0798m  381:net16   =   1.8000 
 + 382:net16   =  36.0000f  383:net16   =  36.2003f  384:net16   =   1.8000 
 + 385:net23   = 901.3522m  390:net16   =   1.8000   391:net16   =  36.0000f
 + 392:net16   =  36.2004f  393:net16   =   1.8000   394:net23   =  18.0000f
 + 399:net16   = 899.3583m  400:net16   = 898.5955m  401:net16   = 899.3583m
 + 402:net16   = 900.0317m  403:net23   =  18.0000f  408:net16   = 899.3583m
 + 409:net16   = 898.9995m  410:net16   = 899.3583m  411:net16   = 899.8071m
 + 412:net23   =  18.0000f  417:net16   = 899.3583m  418:net16   = 898.9995m
 + 419:net16   = 899.3583m  420:net16   = 899.8071m  421:net23   =  18.0000f
 + 426:net16   = 899.3583m  427:net16   = 898.9995m  428:net16   = 899.3583m
 + 429:net16   = 899.8071m  430:net23   =  18.0000f  435:net16   = 899.3583m
 + 436:net16   = 898.9995m  437:net16   = 899.3583m  438:net16   = 899.8071m
 + 439:net23   =  18.0000f  444:net16   =  54.0000f  445:net16   =   1.8000 
 + 446:net16   =   1.8000   447:net16   =  36.0000f  448:net23   =  18.0000f
 + 453:net16   = 899.3583m  454:net16   = 898.9995m  455:net16   = 899.3583m
 + 456:net16   = 899.8071m  457:net23   = 901.3533m  462:net16   =   1.8000 
 + 463:net16   =  36.0000f  464:net16   =  36.2004f  465:net16   =   1.8000 
 + 466:net23   = 901.3522m  471:net16   =   1.8000   472:net16   =  36.0000f
 + 473:net16   =  36.2004f  474:net16   =   1.8000   475:net23   =  18.0000f
 + 480:net16   = 899.3584m  481:net16   = 898.9989m  482:net16   = 899.3581m
 + 483:net16   = 899.8074m  484:net23   =  18.0000f  489:net16   =  36.0000f
 + 490:net16   =   1.8000   491:net16   =   1.8000   492:net16   =  44.9936f
 + 637:net017  =   1.8000   637:net22   =  18.0000f  637:net8    =   1.8000 
 + 638:net017  =   1.8000   638:net22   =  18.0000f  638:net8    =   1.8000 
 + 639:net23   =   1.8000   640:net23   =  18.0000f  641:net23   =   1.8000 
 + 642:net23   =  18.0000f  643:net8    =  18.0000f  644:net8    =  36.0000f
 + 648:net23   =   1.8000   649:net23   =  18.0000f  650:net23   =   1.8000 
 + 651:net23   =  18.0000f  652:net8    =  18.0000f  653:net8    =  36.0000f
 + 657:net23   =   1.8000   658:net23   =  18.0000f  659:net23   =   1.8000 
 + 660:net23   =  18.0000f  661:net8    =  18.0000f  662:net8    =  36.0000f
 + 666:net23   =   1.8000   667:net23   =  18.0000f  668:net23   =   1.8000 
 + 669:net23   =  18.0000f  670:net8    =  18.0000f  671:net8    =  36.0000f
 + 675:net23   =   1.8000   676:net23   =  18.0000f  677:net23   =   1.8000 
 + 678:net23   =  18.0000f  679:net8    =  18.0000f  680:net8    =  36.0000f
 + 684:net23   =   1.8000   685:net23   =  18.0000f  686:net23   =   1.8000 
 + 687:net23   =  18.0000f  688:net8    =  18.0000f  689:net8    =  36.0000f
 + 693:net23   =   1.8000   694:net23   =  18.0000f  695:net23   =   1.8000 
 + 696:net23   =  18.0000f  697:net8    =  18.0000f  698:net8    =  36.0000f
 + 702:net23   =  18.0000f  703:net23   =   1.8000   704:net23   =  18.0000f
 + 705:net23   =   1.8000   706:net8    =  36.0000f  707:net8    =  18.0000f
 + 713:net23   = 902.4451m  714:net23   = 889.9722m  715:net23   = 905.3186m
 + 716:net23   = 898.3927m  717:net8    =  17.9955n  718:net8    =  17.9955n
 + 722:net23   = 900.0843m  723:net23   = 894.2174m  724:net23   = 902.9613m
 + 725:net23   = 899.7036m  726:net8    =  17.9955n  727:net8    =  17.9955n
 + 731:net23   = 900.0843m  732:net23   = 894.2174m  733:net23   = 902.9613m
 + 734:net23   = 899.7036m  735:net8    =  17.9955n  736:net8    =  17.9955n
 + 740:net23   = 900.0843m  741:net23   = 894.2174m  742:net23   = 902.9613m
 + 743:net23   = 899.7036m  744:net8    =  17.9955n  745:net8    =  17.9955n
 + 749:net23   = 900.0843m  750:net23   = 894.2175m  751:net23   = 902.9613m
 + 752:net23   = 899.7036m  753:net8    =  17.9955n  754:net8    =  17.9955n
 + 758:net23   = 900.0843m  759:net23   = 894.2175m  760:net23   = 902.9613m
 + 761:net23   = 899.7036m  762:net8    =  17.9955n  763:net8    =  17.9955n
 + 767:net23   = 900.0877m  768:net23   = 891.5848m  769:net23   = 904.4231m
 + 770:net23   = 899.7016m  771:net8    =  17.9955n  772:net8    =  17.9955n
 + 776:net23   =   1.8000   777:net23   =  18.0000f  778:net23   =   1.8000 
 + 779:net23   =  18.0000f  780:net8    =  18.0000f  781:net8    =  36.0000f
 +1075:net23   =  18.0000f 1076:net23   =   1.8000  1079:net23   =  18.0000f
 +1080:net23   =   1.8000 


          ***** job concluded
 ******  
 *behavior simulation

 ****** job statistics summary tnom=  25.000 temp=  27.000 ******
  
 ******  Machine Information  ******
 CPU:
 model name	: Intel(R) Xeon(R) Silver 4110 CPU @ 2.10GHz
 cpu MHz	: 2100.000
  
 OS:
 Linux version 3.10.0-957.el7.x86_64 (mockbuild@kbuilder.bsys.centos.org) (gcc version 4.8.5 20150623 (Red Hat 4.8.5-36) (GCC) ) #1 SMP Thu Nov 8 23:39:32 UTC 2018


  ******  HSPICE Threads Information  ******

  Command Line Threads Count :     1
  Available CPU Count        :    32
  Actual Threads Count       :     1


  ******  Circuit Statistics  ******
  # nodes       =     719 # elements   =    4623
  # resistors   =    2241 # capacitors =    1312 # inductors   =       0
  # mutual_inds =       0 # vccs       =    1036 # vcvs        =      12
  # cccs        =       0 # ccvs       =       0 # volt_srcs   =      22
  # curr_srcs   =       0 # diodes     =       0 # bjts        =       0
  # jfets       =       0 # mosfets    =       0 # U elements  =       0
  # T elements  =       0 # W elements =       0 # B elements  =       0
  # S elements  =       0 # P elements =       0 # va device   =       0
  # vector_srcs =       0 # N elements =       0


  ******  Runtime Statistics (seconds)  ******

  analysis           time    # points   tot. iter  conv.iter
  op point           0.03           1          23
  transient          8.86         161       18288        6181 rev=       347
  readin             0.07
  errchk             0.06
  setup              0.02
  output             0.00


           peak memory used        329.03 megabytes
           total cpu time            9.05 seconds
           total elapsed time        8.96 seconds
           job started at     19:03:03 09/08/2019
           job ended   at     19:03:12 09/08/2019



>info:         ***** hspice job concluded
 lic: Release hspice token(s) 
 lic: total license checkout elapse time:        0.31(s)
