Using: /usr/cad/synopsys/hspice/cur/hspice/linux64/hspice bhv1.sp
 ****** HSPICE -- O-2018.09 linux64 (Aug 26 2018) ******                        
  Copyright (c) 1986 - 2019 by Synopsys, Inc. All Rights Reserved.              
  This software and the associated documentation are proprietary
  to Synopsys, Inc. This software may only be used in accordance
  with the terms and conditions of a written license agreement with
  Synopsys, Inc. All other use, reproduction, or distribution of
  this software is strictly prohibited.
  Input File: bhv1.sp                                                           
  Command line options: /usr/cad/synopsys/hspice/cur/hspice/linux64/hspice bhv1.sp
 lic:  
 lic: FLEXlm: SDK_11.6.9.6 
 lic: USER:   ychuang              HOSTNAME: adc 
 lic: HOSTID: "b026281535a3"       PID:      37535 
 lic: Using FLEXlm license file: 
 lic: 26585@lsnctu 
 lic: Checkout 1 hspice 
 lic: License/Maintenance for hspice will expire on 14-may-2022/2018.09 
 lic: 187(in_use)/190(total) FLOATING license(s) on SERVER 26585@lsnctu 
 lic:   

 **warning** RUNLVL=0 option detected. RUNLVL=0 is automatically switched to RUNLVL=5 from Release H-2013.03-SP1. RUNLVL=0 is a legacy setting with poor runtime performance.


1****** HSPICE -- O-2018.09 linux64 (Aug 26 2018) ******                        
 ******  
 * idc_mod simulation

 ****** circuit name directory
 circuit number to circuit name directory
   number circuitname                     definition         multiplier
        0 main circuit
        1 xi23.                           sa_8bit_c_array_with_dac_trad
                                                                 1.00 
        2 xi22.                           sa_8bit_c_array_with_dac_trad
                                                                 1.00 
        3 xcmp.                           vcvs_cmp           1.00 
        4 xsa_logic.                      sa_logic_8bit      1.00 
        5 xdffout_7.                      dff_set_rst_schematic
                                                                 1.00 
        6 xdffout_6.                      dff_set_rst_schematic
                                                                 1.00 
        7 xdffout_5.                      dff_set_rst_schematic
                                                                 1.00 
        8 xdffout_4.                      dff_set_rst_schematic
                                                                 1.00 
        9 xdffout_3.                      dff_set_rst_schematic
                                                                 1.00 
       10 xdffout_2.                      dff_set_rst_schematic
                                                                 1.00 
       11 xdffout_1.                      dff_set_rst_schematic
                                                                 1.00 
       12 xdffout_0.                      dff_set_rst_schematic
                                                                 1.00 
       13 xi7.                            nand2_bhv          1.00 
       14 xi8.                            inv_bhv            1.00 
       15 xi6.                            inv_bhv            1.00 
       16 xi5.                            inv_bhv            1.00 
       17 xcmplatch.                      dlatch             1.00 
       18 xi23.xsa_dac.                   sa_dac_8bit        1.00 
       19 xi23.xswvcmp.                   tgb                1.00 
       20 xi22.xsa_dac.                   sa_dac_8bit        1.00 
       21 xi22.xswvcmp.                   tgb                1.00 
       22 xsa_logic.xrsh00.               dff_set_rst        1.00 
       23 xsa_logic.xdata3.               dff_set_rst        1.00 
       24 xsa_logic.xdata2.               dff_set_rst        1.00 
       25 xsa_logic.xdata1.               dff_set_rst        1.00 
       26 xsa_logic.xdata00.              dff_set_rst        1.00 
       27 xsa_logic.xdata0.               dff_set_rst        1.00 
       28 xsa_logic.xdata5.               dff_set_rst        1.00 
       29 xsa_logic.xrsh0.                dff_set_rst        1.00 
       30 xsa_logic.xrsh3.                dff_set_rst        1.00 
       31 xsa_logic.xrsh2.                dff_set_rst        1.00 
       32 xsa_logic.xrsh1.                dff_set_rst        1.00 
       33 xsa_logic.xrsh4.                dff_set_rst        1.00 
       34 xsa_logic.xdata7.               dff_set_rst        1.00 
       35 xsa_logic.xrsh5.                dff_set_rst        1.00 
       36 xsa_logic.xdata6.               dff_set_rst        1.00 
       37 xsa_logic.xdata4.               dff_set_rst        1.00 
       38 xsa_logic.xrsh6.                dff_set_rst        1.00 
       39 xsa_logic.xrsh7.                dff_set_rst        1.00 
       40 xdffout_7.xi1.                  inv_bhv            1.00 
       41 xdffout_7.xi40.                 tgb                1.00 
       42 xdffout_7.xi34.                 tgb                1.00 
       43 xdffout_7.xi41.                 tgb                1.00 
       44 xdffout_7.xsw1.                 tgb                1.00 
       45 xdffout_7.xi42.                 nor2_bhv           1.00 
       46 xdffout_7.xi43.                 nor2_bhv           1.00 
       47 xdffout_7.xi31.                 nor2_bhv           1.00 
       48 xdffout_7.xi37.                 nor2_bhv           1.00 
       49 xdffout_6.xi1.                  inv_bhv            1.00 
       50 xdffout_6.xi40.                 tgb                1.00 
       51 xdffout_6.xi34.                 tgb                1.00 
       52 xdffout_6.xi41.                 tgb                1.00 
       53 xdffout_6.xsw1.                 tgb                1.00 
       54 xdffout_6.xi42.                 nor2_bhv           1.00 
       55 xdffout_6.xi43.                 nor2_bhv           1.00 
       56 xdffout_6.xi31.                 nor2_bhv           1.00 
       57 xdffout_6.xi37.                 nor2_bhv           1.00 
       58 xdffout_5.xi1.                  inv_bhv            1.00 
       59 xdffout_5.xi40.                 tgb                1.00 
       60 xdffout_5.xi34.                 tgb                1.00 
       61 xdffout_5.xi41.                 tgb                1.00 
       62 xdffout_5.xsw1.                 tgb                1.00 
       63 xdffout_5.xi42.                 nor2_bhv           1.00 
       64 xdffout_5.xi43.                 nor2_bhv           1.00 
       65 xdffout_5.xi31.                 nor2_bhv           1.00 
       66 xdffout_5.xi37.                 nor2_bhv           1.00 
       67 xdffout_4.xi1.                  inv_bhv            1.00 
       68 xdffout_4.xi40.                 tgb                1.00 
       69 xdffout_4.xi34.                 tgb                1.00 
       70 xdffout_4.xi41.                 tgb                1.00 
       71 xdffout_4.xsw1.                 tgb                1.00 
       72 xdffout_4.xi42.                 nor2_bhv           1.00 
       73 xdffout_4.xi43.                 nor2_bhv           1.00 
       74 xdffout_4.xi31.                 nor2_bhv           1.00 
       75 xdffout_4.xi37.                 nor2_bhv           1.00 
       76 xdffout_3.xi1.                  inv_bhv            1.00 
       77 xdffout_3.xi40.                 tgb                1.00 
       78 xdffout_3.xi34.                 tgb                1.00 
       79 xdffout_3.xi41.                 tgb                1.00 
       80 xdffout_3.xsw1.                 tgb                1.00 
       81 xdffout_3.xi42.                 nor2_bhv           1.00 
       82 xdffout_3.xi43.                 nor2_bhv           1.00 
       83 xdffout_3.xi31.                 nor2_bhv           1.00 
       84 xdffout_3.xi37.                 nor2_bhv           1.00 
       85 xdffout_2.xi1.                  inv_bhv            1.00 
       86 xdffout_2.xi40.                 tgb                1.00 
       87 xdffout_2.xi34.                 tgb                1.00 
       88 xdffout_2.xi41.                 tgb                1.00 
       89 xdffout_2.xsw1.                 tgb                1.00 
       90 xdffout_2.xi42.                 nor2_bhv           1.00 
       91 xdffout_2.xi43.                 nor2_bhv           1.00 
       92 xdffout_2.xi31.                 nor2_bhv           1.00 
       93 xdffout_2.xi37.                 nor2_bhv           1.00 
       94 xdffout_1.xi1.                  inv_bhv            1.00 
       95 xdffout_1.xi40.                 tgb                1.00 
       96 xdffout_1.xi34.                 tgb                1.00 
       97 xdffout_1.xi41.                 tgb                1.00 
       98 xdffout_1.xsw1.                 tgb                1.00 
       99 xdffout_1.xi42.                 nor2_bhv           1.00 
      100 xdffout_1.xi43.                 nor2_bhv           1.00 
      101 xdffout_1.xi31.                 nor2_bhv           1.00 
      102 xdffout_1.xi37.                 nor2_bhv           1.00 
      103 xdffout_0.xi1.                  inv_bhv            1.00 
      104 xdffout_0.xi40.                 tgb                1.00 
      105 xdffout_0.xi34.                 tgb                1.00 
      106 xdffout_0.xi41.                 tgb                1.00 
      107 xdffout_0.xsw1.                 tgb                1.00 
      108 xdffout_0.xi42.                 nor2_bhv           1.00 
      109 xdffout_0.xi43.                 nor2_bhv           1.00 
      110 xdffout_0.xi31.                 nor2_bhv           1.00 
      111 xdffout_0.xi37.                 nor2_bhv           1.00 
      112 xi7.xn1.                        nmos_b             1.00 
      113 xi7.xi9.                        nmos_b             1.00 
      114 xi7.xp1.                        pmos_b             1.00 
      115 xi7.xi10.                       pmos_b             1.00 
      116 xi8.xp1.                        pmos_b             1.00 
      117 xi8.xn1.                        nmos_b             1.00 
      118 xi6.xp1.                        pmos_b             1.00 
      119 xi6.xn1.                        nmos_b             1.00 
      120 xi5.xp1.                        pmos_b             1.00 
      121 xi5.xn1.                        nmos_b             1.00 
      122 xcmplatch.xi2.                  inv_bhv            1.00 
      123 xcmplatch.xi1.                  inv_bhv            1.00 
      124 xcmplatch.xi29.                 tgb                1.00 
      125 xcmplatch.xsw1.                 tgb                1.00 
      126 xi23.xsa_dac.xswdac_0.          dac_sw             1.00 
      127 xi23.xsa_dac.xswdac_1.          dac_sw             1.00 
      128 xi23.xsa_dac.xswdac_2.          dac_sw             1.00 
      129 xi23.xsa_dac.xswdac_3.          dac_sw             1.00 
      130 xi23.xsa_dac.xswdac_4.          dac_sw             1.00 
      131 xi23.xsa_dac.xswdac_5.          dac_sw             1.00 
      132 xi23.xsa_dac.xswdac_6.          dac_sw             1.00 
      133 xi23.xsa_dac.xswdac_7.          dac_sw             1.00 
      134 xi23.xsa_dac.xi1.               inv_bhv            1.00 
      135 xi23.xsa_dac.xswdac00.          tgb                1.00 
      136 xi23.xsa_dac.xswvin.            tgb                1.00 
      137 xi22.xsa_dac.xswdac_0.          dac_sw             1.00 
      138 xi22.xsa_dac.xswdac_1.          dac_sw             1.00 
      139 xi22.xsa_dac.xswdac_2.          dac_sw             1.00 
      140 xi22.xsa_dac.xswdac_3.          dac_sw             1.00 
      141 xi22.xsa_dac.xswdac_4.          dac_sw             1.00 
      142 xi22.xsa_dac.xswdac_5.          dac_sw             1.00 
      143 xi22.xsa_dac.xswdac_6.          dac_sw             1.00 
      144 xi22.xsa_dac.xswdac_7.          dac_sw             1.00 
      145 xi22.xsa_dac.xi1.               inv_bhv            1.00 
      146 xi22.xsa_dac.xswdac00.          tgb                1.00 
      147 xi22.xsa_dac.xswvin.            tgb                1.00 
      148 xsa_logic.xrsh00.xi1.           inv_bhv            1.00 
      149 xsa_logic.xrsh00.xi40.          tgb                1.00 
      150 xsa_logic.xrsh00.xi34.          tgb                1.00 
      151 xsa_logic.xrsh00.xi41.          tgb                1.00 
      152 xsa_logic.xrsh00.xsw1.          tgb                1.00 
      153 xsa_logic.xrsh00.xi42.          nor2_bhv           1.00 
      154 xsa_logic.xrsh00.xi43.          nor2_bhv           1.00 
      155 xsa_logic.xrsh00.xi31.          nor2_bhv           1.00 
      156 xsa_logic.xrsh00.xi37.          nor2_bhv           1.00 
      157 xsa_logic.xdata3.xi1.           inv_bhv            1.00 
      158 xsa_logic.xdata3.xi40.          tgb                1.00 
      159 xsa_logic.xdata3.xi34.          tgb                1.00 
      160 xsa_logic.xdata3.xi41.          tgb                1.00 
      161 xsa_logic.xdata3.xsw1.          tgb                1.00 
      162 xsa_logic.xdata3.xi42.          nor2_bhv           1.00 
      163 xsa_logic.xdata3.xi43.          nor2_bhv           1.00 
      164 xsa_logic.xdata3.xi31.          nor2_bhv           1.00 
      165 xsa_logic.xdata3.xi37.          nor2_bhv           1.00 
      166 xsa_logic.xdata2.xi1.           inv_bhv            1.00 
      167 xsa_logic.xdata2.xi40.          tgb                1.00 
      168 xsa_logic.xdata2.xi34.          tgb                1.00 
      169 xsa_logic.xdata2.xi41.          tgb                1.00 
      170 xsa_logic.xdata2.xsw1.          tgb                1.00 
      171 xsa_logic.xdata2.xi42.          nor2_bhv           1.00 
      172 xsa_logic.xdata2.xi43.          nor2_bhv           1.00 
      173 xsa_logic.xdata2.xi31.          nor2_bhv           1.00 
      174 xsa_logic.xdata2.xi37.          nor2_bhv           1.00 
      175 xsa_logic.xdata1.xi1.           inv_bhv            1.00 
      176 xsa_logic.xdata1.xi40.          tgb                1.00 
      177 xsa_logic.xdata1.xi34.          tgb                1.00 
      178 xsa_logic.xdata1.xi41.          tgb                1.00 
      179 xsa_logic.xdata1.xsw1.          tgb                1.00 
      180 xsa_logic.xdata1.xi42.          nor2_bhv           1.00 
      181 xsa_logic.xdata1.xi43.          nor2_bhv           1.00 
      182 xsa_logic.xdata1.xi31.          nor2_bhv           1.00 
      183 xsa_logic.xdata1.xi37.          nor2_bhv           1.00 
      184 xsa_logic.xdata00.xi1.          inv_bhv            1.00 
      185 xsa_logic.xdata00.xi40.         tgb                1.00 
      186 xsa_logic.xdata00.xi34.         tgb                1.00 
      187 xsa_logic.xdata00.xi41.         tgb                1.00 
      188 xsa_logic.xdata00.xsw1.         tgb                1.00 
      189 xsa_logic.xdata00.xi42.         nor2_bhv           1.00 
      190 xsa_logic.xdata00.xi43.         nor2_bhv           1.00 
      191 xsa_logic.xdata00.xi31.         nor2_bhv           1.00 
      192 xsa_logic.xdata00.xi37.         nor2_bhv           1.00 
      193 xsa_logic.xdata0.xi1.           inv_bhv            1.00 
      194 xsa_logic.xdata0.xi40.          tgb                1.00 
      195 xsa_logic.xdata0.xi34.          tgb                1.00 
      196 xsa_logic.xdata0.xi41.          tgb                1.00 
      197 xsa_logic.xdata0.xsw1.          tgb                1.00 
      198 xsa_logic.xdata0.xi42.          nor2_bhv           1.00 
      199 xsa_logic.xdata0.xi43.          nor2_bhv           1.00 
      200 xsa_logic.xdata0.xi31.          nor2_bhv           1.00 
      201 xsa_logic.xdata0.xi37.          nor2_bhv           1.00 
      202 xsa_logic.xdata5.xi1.           inv_bhv            1.00 
      203 xsa_logic.xdata5.xi40.          tgb                1.00 
      204 xsa_logic.xdata5.xi34.          tgb                1.00 
      205 xsa_logic.xdata5.xi41.          tgb                1.00 
      206 xsa_logic.xdata5.xsw1.          tgb                1.00 
      207 xsa_logic.xdata5.xi42.          nor2_bhv           1.00 
      208 xsa_logic.xdata5.xi43.          nor2_bhv           1.00 
      209 xsa_logic.xdata5.xi31.          nor2_bhv           1.00 
      210 xsa_logic.xdata5.xi37.          nor2_bhv           1.00 
      211 xsa_logic.xrsh0.xi1.            inv_bhv            1.00 
      212 xsa_logic.xrsh0.xi40.           tgb                1.00 
      213 xsa_logic.xrsh0.xi34.           tgb                1.00 
      214 xsa_logic.xrsh0.xi41.           tgb                1.00 
      215 xsa_logic.xrsh0.xsw1.           tgb                1.00 
      216 xsa_logic.xrsh0.xi42.           nor2_bhv           1.00 
      217 xsa_logic.xrsh0.xi43.           nor2_bhv           1.00 
      218 xsa_logic.xrsh0.xi31.           nor2_bhv           1.00 
      219 xsa_logic.xrsh0.xi37.           nor2_bhv           1.00 
      220 xsa_logic.xrsh3.xi1.            inv_bhv            1.00 
      221 xsa_logic.xrsh3.xi40.           tgb                1.00 
      222 xsa_logic.xrsh3.xi34.           tgb                1.00 
      223 xsa_logic.xrsh3.xi41.           tgb                1.00 
      224 xsa_logic.xrsh3.xsw1.           tgb                1.00 
      225 xsa_logic.xrsh3.xi42.           nor2_bhv           1.00 
      226 xsa_logic.xrsh3.xi43.           nor2_bhv           1.00 
      227 xsa_logic.xrsh3.xi31.           nor2_bhv           1.00 
      228 xsa_logic.xrsh3.xi37.           nor2_bhv           1.00 
      229 xsa_logic.xrsh2.xi1.            inv_bhv            1.00 
      230 xsa_logic.xrsh2.xi40.           tgb                1.00 
      231 xsa_logic.xrsh2.xi34.           tgb                1.00 
      232 xsa_logic.xrsh2.xi41.           tgb                1.00 
      233 xsa_logic.xrsh2.xsw1.           tgb                1.00 
      234 xsa_logic.xrsh2.xi42.           nor2_bhv           1.00 
      235 xsa_logic.xrsh2.xi43.           nor2_bhv           1.00 
      236 xsa_logic.xrsh2.xi31.           nor2_bhv           1.00 
      237 xsa_logic.xrsh2.xi37.           nor2_bhv           1.00 
      238 xsa_logic.xrsh1.xi1.            inv_bhv            1.00 
      239 xsa_logic.xrsh1.xi40.           tgb                1.00 
      240 xsa_logic.xrsh1.xi34.           tgb                1.00 
      241 xsa_logic.xrsh1.xi41.           tgb                1.00 
      242 xsa_logic.xrsh1.xsw1.           tgb                1.00 
      243 xsa_logic.xrsh1.xi42.           nor2_bhv           1.00 
      244 xsa_logic.xrsh1.xi43.           nor2_bhv           1.00 
      245 xsa_logic.xrsh1.xi31.           nor2_bhv           1.00 
      246 xsa_logic.xrsh1.xi37.           nor2_bhv           1.00 
      247 xsa_logic.xrsh4.xi1.            inv_bhv            1.00 
      248 xsa_logic.xrsh4.xi40.           tgb                1.00 
      249 xsa_logic.xrsh4.xi34.           tgb                1.00 
      250 xsa_logic.xrsh4.xi41.           tgb                1.00 
      251 xsa_logic.xrsh4.xsw1.           tgb                1.00 
      252 xsa_logic.xrsh4.xi42.           nor2_bhv           1.00 
      253 xsa_logic.xrsh4.xi43.           nor2_bhv           1.00 
      254 xsa_logic.xrsh4.xi31.           nor2_bhv           1.00 
      255 xsa_logic.xrsh4.xi37.           nor2_bhv           1.00 
      256 xsa_logic.xdata7.xi1.           inv_bhv            1.00 
      257 xsa_logic.xdata7.xi40.          tgb                1.00 
      258 xsa_logic.xdata7.xi34.          tgb                1.00 
      259 xsa_logic.xdata7.xi41.          tgb                1.00 
      260 xsa_logic.xdata7.xsw1.          tgb                1.00 
      261 xsa_logic.xdata7.xi42.          nor2_bhv           1.00 
      262 xsa_logic.xdata7.xi43.          nor2_bhv           1.00 
      263 xsa_logic.xdata7.xi31.          nor2_bhv           1.00 
      264 xsa_logic.xdata7.xi37.          nor2_bhv           1.00 
      265 xsa_logic.xrsh5.xi1.            inv_bhv            1.00 
      266 xsa_logic.xrsh5.xi40.           tgb                1.00 
      267 xsa_logic.xrsh5.xi34.           tgb                1.00 
      268 xsa_logic.xrsh5.xi41.           tgb                1.00 
      269 xsa_logic.xrsh5.xsw1.           tgb                1.00 
      270 xsa_logic.xrsh5.xi42.           nor2_bhv           1.00 
      271 xsa_logic.xrsh5.xi43.           nor2_bhv           1.00 
      272 xsa_logic.xrsh5.xi31.           nor2_bhv           1.00 
      273 xsa_logic.xrsh5.xi37.           nor2_bhv           1.00 
      274 xsa_logic.xdata6.xi1.           inv_bhv            1.00 
      275 xsa_logic.xdata6.xi40.          tgb                1.00 
      276 xsa_logic.xdata6.xi34.          tgb                1.00 
      277 xsa_logic.xdata6.xi41.          tgb                1.00 
      278 xsa_logic.xdata6.xsw1.          tgb                1.00 
      279 xsa_logic.xdata6.xi42.          nor2_bhv           1.00 
      280 xsa_logic.xdata6.xi43.          nor2_bhv           1.00 
      281 xsa_logic.xdata6.xi31.          nor2_bhv           1.00 
      282 xsa_logic.xdata6.xi37.          nor2_bhv           1.00 
      283 xsa_logic.xdata4.xi1.           inv_bhv            1.00 
      284 xsa_logic.xdata4.xi40.          tgb                1.00 
      285 xsa_logic.xdata4.xi34.          tgb                1.00 
      286 xsa_logic.xdata4.xi41.          tgb                1.00 
      287 xsa_logic.xdata4.xsw1.          tgb                1.00 
      288 xsa_logic.xdata4.xi42.          nor2_bhv           1.00 
      289 xsa_logic.xdata4.xi43.          nor2_bhv           1.00 
      290 xsa_logic.xdata4.xi31.          nor2_bhv           1.00 
      291 xsa_logic.xdata4.xi37.          nor2_bhv           1.00 
      292 xsa_logic.xrsh6.xi1.            inv_bhv            1.00 
      293 xsa_logic.xrsh6.xi40.           tgb                1.00 
      294 xsa_logic.xrsh6.xi34.           tgb                1.00 
      295 xsa_logic.xrsh6.xi41.           tgb                1.00 
      296 xsa_logic.xrsh6.xsw1.           tgb                1.00 
      297 xsa_logic.xrsh6.xi42.           nor2_bhv           1.00 
      298 xsa_logic.xrsh6.xi43.           nor2_bhv           1.00 
      299 xsa_logic.xrsh6.xi31.           nor2_bhv           1.00 
      300 xsa_logic.xrsh6.xi37.           nor2_bhv           1.00 
      301 xsa_logic.xrsh7.xi1.            inv_bhv            1.00 
      302 xsa_logic.xrsh7.xi40.           tgb                1.00 
      303 xsa_logic.xrsh7.xi34.           tgb                1.00 
      304 xsa_logic.xrsh7.xi41.           tgb                1.00 
      305 xsa_logic.xrsh7.xsw1.           tgb                1.00 
      306 xsa_logic.xrsh7.xi42.           nor2_bhv           1.00 
      307 xsa_logic.xrsh7.xi43.           nor2_bhv           1.00 
      308 xsa_logic.xrsh7.xi31.           nor2_bhv           1.00 
      309 xsa_logic.xrsh7.xi37.           nor2_bhv           1.00 
      310 xdffout_7.xi1.xp1.              pmos_b             1.00 
      311 xdffout_7.xi1.xn1.              nmos_b             1.00 
      312 xdffout_7.xi42.xn1.             nmos_b             1.00 
      313 xdffout_7.xi42.xi9.             nmos_b             1.00 
      314 xdffout_7.xi42.xp1.             pmos_b             1.00 
      315 xdffout_7.xi42.xi10.            pmos_b             1.00 
      316 xdffout_7.xi43.xn1.             nmos_b             1.00 
      317 xdffout_7.xi43.xi9.             nmos_b             1.00 
      318 xdffout_7.xi43.xp1.             pmos_b             1.00 
      319 xdffout_7.xi43.xi10.            pmos_b             1.00 
      320 xdffout_7.xi31.xn1.             nmos_b             1.00 
      321 xdffout_7.xi31.xi9.             nmos_b             1.00 
      322 xdffout_7.xi31.xp1.             pmos_b             1.00 
      323 xdffout_7.xi31.xi10.            pmos_b             1.00 
      324 xdffout_7.xi37.xn1.             nmos_b             1.00 
      325 xdffout_7.xi37.xi9.             nmos_b             1.00 
      326 xdffout_7.xi37.xp1.             pmos_b             1.00 
      327 xdffout_7.xi37.xi10.            pmos_b             1.00 
      328 xdffout_6.xi1.xp1.              pmos_b             1.00 
      329 xdffout_6.xi1.xn1.              nmos_b             1.00 
      330 xdffout_6.xi42.xn1.             nmos_b             1.00 
      331 xdffout_6.xi42.xi9.             nmos_b             1.00 
      332 xdffout_6.xi42.xp1.             pmos_b             1.00 
      333 xdffout_6.xi42.xi10.            pmos_b             1.00 
      334 xdffout_6.xi43.xn1.             nmos_b             1.00 
      335 xdffout_6.xi43.xi9.             nmos_b             1.00 
      336 xdffout_6.xi43.xp1.             pmos_b             1.00 
      337 xdffout_6.xi43.xi10.            pmos_b             1.00 
      338 xdffout_6.xi31.xn1.             nmos_b             1.00 
      339 xdffout_6.xi31.xi9.             nmos_b             1.00 
      340 xdffout_6.xi31.xp1.             pmos_b             1.00 
      341 xdffout_6.xi31.xi10.            pmos_b             1.00 
      342 xdffout_6.xi37.xn1.             nmos_b             1.00 
      343 xdffout_6.xi37.xi9.             nmos_b             1.00 
      344 xdffout_6.xi37.xp1.             pmos_b             1.00 
      345 xdffout_6.xi37.xi10.            pmos_b             1.00 
      346 xdffout_5.xi1.xp1.              pmos_b             1.00 
      347 xdffout_5.xi1.xn1.              nmos_b             1.00 
      348 xdffout_5.xi42.xn1.             nmos_b             1.00 
      349 xdffout_5.xi42.xi9.             nmos_b             1.00 
      350 xdffout_5.xi42.xp1.             pmos_b             1.00 
      351 xdffout_5.xi42.xi10.            pmos_b             1.00 
      352 xdffout_5.xi43.xn1.             nmos_b             1.00 
      353 xdffout_5.xi43.xi9.             nmos_b             1.00 
      354 xdffout_5.xi43.xp1.             pmos_b             1.00 
      355 xdffout_5.xi43.xi10.            pmos_b             1.00 
      356 xdffout_5.xi31.xn1.             nmos_b             1.00 
      357 xdffout_5.xi31.xi9.             nmos_b             1.00 
      358 xdffout_5.xi31.xp1.             pmos_b             1.00 
      359 xdffout_5.xi31.xi10.            pmos_b             1.00 
      360 xdffout_5.xi37.xn1.             nmos_b             1.00 
      361 xdffout_5.xi37.xi9.             nmos_b             1.00 
      362 xdffout_5.xi37.xp1.             pmos_b             1.00 
      363 xdffout_5.xi37.xi10.            pmos_b             1.00 
      364 xdffout_4.xi1.xp1.              pmos_b             1.00 
      365 xdffout_4.xi1.xn1.              nmos_b             1.00 
      366 xdffout_4.xi42.xn1.             nmos_b             1.00 
      367 xdffout_4.xi42.xi9.             nmos_b             1.00 
      368 xdffout_4.xi42.xp1.             pmos_b             1.00 
      369 xdffout_4.xi42.xi10.            pmos_b             1.00 
      370 xdffout_4.xi43.xn1.             nmos_b             1.00 
      371 xdffout_4.xi43.xi9.             nmos_b             1.00 
      372 xdffout_4.xi43.xp1.             pmos_b             1.00 
      373 xdffout_4.xi43.xi10.            pmos_b             1.00 
      374 xdffout_4.xi31.xn1.             nmos_b             1.00 
      375 xdffout_4.xi31.xi9.             nmos_b             1.00 
      376 xdffout_4.xi31.xp1.             pmos_b             1.00 
      377 xdffout_4.xi31.xi10.            pmos_b             1.00 
      378 xdffout_4.xi37.xn1.             nmos_b             1.00 
      379 xdffout_4.xi37.xi9.             nmos_b             1.00 
      380 xdffout_4.xi37.xp1.             pmos_b             1.00 
      381 xdffout_4.xi37.xi10.            pmos_b             1.00 
      382 xdffout_3.xi1.xp1.              pmos_b             1.00 
      383 xdffout_3.xi1.xn1.              nmos_b             1.00 
      384 xdffout_3.xi42.xn1.             nmos_b             1.00 
      385 xdffout_3.xi42.xi9.             nmos_b             1.00 
      386 xdffout_3.xi42.xp1.             pmos_b             1.00 
      387 xdffout_3.xi42.xi10.            pmos_b             1.00 
      388 xdffout_3.xi43.xn1.             nmos_b             1.00 
      389 xdffout_3.xi43.xi9.             nmos_b             1.00 
      390 xdffout_3.xi43.xp1.             pmos_b             1.00 
      391 xdffout_3.xi43.xi10.            pmos_b             1.00 
      392 xdffout_3.xi31.xn1.             nmos_b             1.00 
      393 xdffout_3.xi31.xi9.             nmos_b             1.00 
      394 xdffout_3.xi31.xp1.             pmos_b             1.00 
      395 xdffout_3.xi31.xi10.            pmos_b             1.00 
      396 xdffout_3.xi37.xn1.             nmos_b             1.00 
      397 xdffout_3.xi37.xi9.             nmos_b             1.00 
      398 xdffout_3.xi37.xp1.             pmos_b             1.00 
      399 xdffout_3.xi37.xi10.            pmos_b             1.00 
      400 xdffout_2.xi1.xp1.              pmos_b             1.00 
      401 xdffout_2.xi1.xn1.              nmos_b             1.00 
      402 xdffout_2.xi42.xn1.             nmos_b             1.00 
      403 xdffout_2.xi42.xi9.             nmos_b             1.00 
      404 xdffout_2.xi42.xp1.             pmos_b             1.00 
      405 xdffout_2.xi42.xi10.            pmos_b             1.00 
      406 xdffout_2.xi43.xn1.             nmos_b             1.00 
      407 xdffout_2.xi43.xi9.             nmos_b             1.00 
      408 xdffout_2.xi43.xp1.             pmos_b             1.00 
      409 xdffout_2.xi43.xi10.            pmos_b             1.00 
      410 xdffout_2.xi31.xn1.             nmos_b             1.00 
      411 xdffout_2.xi31.xi9.             nmos_b             1.00 
      412 xdffout_2.xi31.xp1.             pmos_b             1.00 
      413 xdffout_2.xi31.xi10.            pmos_b             1.00 
      414 xdffout_2.xi37.xn1.             nmos_b             1.00 
      415 xdffout_2.xi37.xi9.             nmos_b             1.00 
      416 xdffout_2.xi37.xp1.             pmos_b             1.00 
      417 xdffout_2.xi37.xi10.            pmos_b             1.00 
      418 xdffout_1.xi1.xp1.              pmos_b             1.00 
      419 xdffout_1.xi1.xn1.              nmos_b             1.00 
      420 xdffout_1.xi42.xn1.             nmos_b             1.00 
      421 xdffout_1.xi42.xi9.             nmos_b             1.00 
      422 xdffout_1.xi42.xp1.             pmos_b             1.00 
      423 xdffout_1.xi42.xi10.            pmos_b             1.00 
      424 xdffout_1.xi43.xn1.             nmos_b             1.00 
      425 xdffout_1.xi43.xi9.             nmos_b             1.00 
      426 xdffout_1.xi43.xp1.             pmos_b             1.00 
      427 xdffout_1.xi43.xi10.            pmos_b             1.00 
      428 xdffout_1.xi31.xn1.             nmos_b             1.00 
      429 xdffout_1.xi31.xi9.             nmos_b             1.00 
      430 xdffout_1.xi31.xp1.             pmos_b             1.00 
      431 xdffout_1.xi31.xi10.            pmos_b             1.00 
      432 xdffout_1.xi37.xn1.             nmos_b             1.00 
      433 xdffout_1.xi37.xi9.             nmos_b             1.00 
      434 xdffout_1.xi37.xp1.             pmos_b             1.00 
      435 xdffout_1.xi37.xi10.            pmos_b             1.00 
      436 xdffout_0.xi1.xp1.              pmos_b             1.00 
      437 xdffout_0.xi1.xn1.              nmos_b             1.00 
      438 xdffout_0.xi42.xn1.             nmos_b             1.00 
      439 xdffout_0.xi42.xi9.             nmos_b             1.00 
      440 xdffout_0.xi42.xp1.             pmos_b             1.00 
      441 xdffout_0.xi42.xi10.            pmos_b             1.00 
      442 xdffout_0.xi43.xn1.             nmos_b             1.00 
      443 xdffout_0.xi43.xi9.             nmos_b             1.00 
      444 xdffout_0.xi43.xp1.             pmos_b             1.00 
      445 xdffout_0.xi43.xi10.            pmos_b             1.00 
      446 xdffout_0.xi31.xn1.             nmos_b             1.00 
      447 xdffout_0.xi31.xi9.             nmos_b             1.00 
      448 xdffout_0.xi31.xp1.             pmos_b             1.00 
      449 xdffout_0.xi31.xi10.            pmos_b             1.00 
      450 xdffout_0.xi37.xn1.             nmos_b             1.00 
      451 xdffout_0.xi37.xi9.             nmos_b             1.00 
      452 xdffout_0.xi37.xp1.             pmos_b             1.00 
      453 xdffout_0.xi37.xi10.            pmos_b             1.00 
      454 xcmplatch.xi2.xp1.              pmos_b             1.00 
      455 xcmplatch.xi2.xn1.              nmos_b             1.00 
      456 xcmplatch.xi1.xp1.              pmos_b             1.00 
      457 xcmplatch.xi1.xn1.              nmos_b             1.00 
      458 xi23.xsa_dac.xswdac_0.xi7.      inv_bhv            1.00 
      459 xi23.xsa_dac.xswdac_0.xi3.      inv_bhv            1.00 
      460 xi23.xsa_dac.xswdac_0.xi20.     inv_bhv            1.00 
      461 xi23.xsa_dac.xswdac_0.xi1.      inv_bhv            1.00 
      462 xi23.xsa_dac.xswdac_0.xi2.      nand2_bhv          1.00 
      463 xi23.xsa_dac.xswdac_0.xi19.     nand2_bhv          1.00 
      464 xi23.xsa_dac.xswdac_0.xswp.     tgb                1.00 
      465 xi23.xsa_dac.xswdac_0.xswn.     tgb                1.00 
      466 xi23.xsa_dac.xswdac_0.xswin.    tgb                1.00 
      467 xi23.xsa_dac.xswdac_1.xi7.      inv_bhv            1.00 
      468 xi23.xsa_dac.xswdac_1.xi3.      inv_bhv            1.00 
      469 xi23.xsa_dac.xswdac_1.xi20.     inv_bhv            1.00 
      470 xi23.xsa_dac.xswdac_1.xi1.      inv_bhv            1.00 
      471 xi23.xsa_dac.xswdac_1.xi2.      nand2_bhv          1.00 
      472 xi23.xsa_dac.xswdac_1.xi19.     nand2_bhv          1.00 
      473 xi23.xsa_dac.xswdac_1.xswp.     tgb                1.00 
      474 xi23.xsa_dac.xswdac_1.xswn.     tgb                1.00 
      475 xi23.xsa_dac.xswdac_1.xswin.    tgb                1.00 
      476 xi23.xsa_dac.xswdac_2.xi7.      inv_bhv            1.00 
      477 xi23.xsa_dac.xswdac_2.xi3.      inv_bhv            1.00 
      478 xi23.xsa_dac.xswdac_2.xi20.     inv_bhv            1.00 
      479 xi23.xsa_dac.xswdac_2.xi1.      inv_bhv            1.00 
      480 xi23.xsa_dac.xswdac_2.xi2.      nand2_bhv          1.00 
      481 xi23.xsa_dac.xswdac_2.xi19.     nand2_bhv          1.00 
      482 xi23.xsa_dac.xswdac_2.xswp.     tgb                1.00 
      483 xi23.xsa_dac.xswdac_2.xswn.     tgb                1.00 
      484 xi23.xsa_dac.xswdac_2.xswin.    tgb                1.00 
      485 xi23.xsa_dac.xswdac_3.xi7.      inv_bhv            1.00 
      486 xi23.xsa_dac.xswdac_3.xi3.      inv_bhv            1.00 
      487 xi23.xsa_dac.xswdac_3.xi20.     inv_bhv            1.00 
      488 xi23.xsa_dac.xswdac_3.xi1.      inv_bhv            1.00 
      489 xi23.xsa_dac.xswdac_3.xi2.      nand2_bhv          1.00 
      490 xi23.xsa_dac.xswdac_3.xi19.     nand2_bhv          1.00 
      491 xi23.xsa_dac.xswdac_3.xswp.     tgb                1.00 
      492 xi23.xsa_dac.xswdac_3.xswn.     tgb                1.00 
      493 xi23.xsa_dac.xswdac_3.xswin.    tgb                1.00 
      494 xi23.xsa_dac.xswdac_4.xi7.      inv_bhv            1.00 
      495 xi23.xsa_dac.xswdac_4.xi3.      inv_bhv            1.00 
      496 xi23.xsa_dac.xswdac_4.xi20.     inv_bhv            1.00 
      497 xi23.xsa_dac.xswdac_4.xi1.      inv_bhv            1.00 
      498 xi23.xsa_dac.xswdac_4.xi2.      nand2_bhv          1.00 
      499 xi23.xsa_dac.xswdac_4.xi19.     nand2_bhv          1.00 
      500 xi23.xsa_dac.xswdac_4.xswp.     tgb                1.00 
      501 xi23.xsa_dac.xswdac_4.xswn.     tgb                1.00 
      502 xi23.xsa_dac.xswdac_4.xswin.    tgb                1.00 
      503 xi23.xsa_dac.xswdac_5.xi7.      inv_bhv            1.00 
      504 xi23.xsa_dac.xswdac_5.xi3.      inv_bhv            1.00 
      505 xi23.xsa_dac.xswdac_5.xi20.     inv_bhv            1.00 
      506 xi23.xsa_dac.xswdac_5.xi1.      inv_bhv            1.00 
      507 xi23.xsa_dac.xswdac_5.xi2.      nand2_bhv          1.00 
      508 xi23.xsa_dac.xswdac_5.xi19.     nand2_bhv          1.00 
      509 xi23.xsa_dac.xswdac_5.xswp.     tgb                1.00 
      510 xi23.xsa_dac.xswdac_5.xswn.     tgb                1.00 
      511 xi23.xsa_dac.xswdac_5.xswin.    tgb                1.00 
      512 xi23.xsa_dac.xswdac_6.xi7.      inv_bhv            1.00 
      513 xi23.xsa_dac.xswdac_6.xi3.      inv_bhv            1.00 
      514 xi23.xsa_dac.xswdac_6.xi20.     inv_bhv            1.00 
      515 xi23.xsa_dac.xswdac_6.xi1.      inv_bhv            1.00 
      516 xi23.xsa_dac.xswdac_6.xi2.      nand2_bhv          1.00 
      517 xi23.xsa_dac.xswdac_6.xi19.     nand2_bhv          1.00 
      518 xi23.xsa_dac.xswdac_6.xswp.     tgb                1.00 
      519 xi23.xsa_dac.xswdac_6.xswn.     tgb                1.00 
      520 xi23.xsa_dac.xswdac_6.xswin.    tgb                1.00 
      521 xi23.xsa_dac.xswdac_7.xi7.      inv_bhv            1.00 
      522 xi23.xsa_dac.xswdac_7.xi3.      inv_bhv            1.00 
      523 xi23.xsa_dac.xswdac_7.xi20.     inv_bhv            1.00 
      524 xi23.xsa_dac.xswdac_7.xi1.      inv_bhv            1.00 
      525 xi23.xsa_dac.xswdac_7.xi2.      nand2_bhv          1.00 
      526 xi23.xsa_dac.xswdac_7.xi19.     nand2_bhv          1.00 
      527 xi23.xsa_dac.xswdac_7.xswp.     tgb                1.00 
      528 xi23.xsa_dac.xswdac_7.xswn.     tgb                1.00 
      529 xi23.xsa_dac.xswdac_7.xswin.    tgb                1.00 
      530 xi23.xsa_dac.xi1.xp1.           pmos_b             1.00 
      531 xi23.xsa_dac.xi1.xn1.           nmos_b             1.00 
      532 xi22.xsa_dac.xswdac_0.xi7.      inv_bhv            1.00 
      533 xi22.xsa_dac.xswdac_0.xi3.      inv_bhv            1.00 
      534 xi22.xsa_dac.xswdac_0.xi20.     inv_bhv            1.00 
      535 xi22.xsa_dac.xswdac_0.xi1.      inv_bhv            1.00 
      536 xi22.xsa_dac.xswdac_0.xi2.      nand2_bhv          1.00 
      537 xi22.xsa_dac.xswdac_0.xi19.     nand2_bhv          1.00 
      538 xi22.xsa_dac.xswdac_0.xswp.     tgb                1.00 
      539 xi22.xsa_dac.xswdac_0.xswn.     tgb                1.00 
      540 xi22.xsa_dac.xswdac_0.xswin.    tgb                1.00 
      541 xi22.xsa_dac.xswdac_1.xi7.      inv_bhv            1.00 
      542 xi22.xsa_dac.xswdac_1.xi3.      inv_bhv            1.00 
      543 xi22.xsa_dac.xswdac_1.xi20.     inv_bhv            1.00 
      544 xi22.xsa_dac.xswdac_1.xi1.      inv_bhv            1.00 
      545 xi22.xsa_dac.xswdac_1.xi2.      nand2_bhv          1.00 
      546 xi22.xsa_dac.xswdac_1.xi19.     nand2_bhv          1.00 
      547 xi22.xsa_dac.xswdac_1.xswp.     tgb                1.00 
      548 xi22.xsa_dac.xswdac_1.xswn.     tgb                1.00 
      549 xi22.xsa_dac.xswdac_1.xswin.    tgb                1.00 
      550 xi22.xsa_dac.xswdac_2.xi7.      inv_bhv            1.00 
      551 xi22.xsa_dac.xswdac_2.xi3.      inv_bhv            1.00 
      552 xi22.xsa_dac.xswdac_2.xi20.     inv_bhv            1.00 
      553 xi22.xsa_dac.xswdac_2.xi1.      inv_bhv            1.00 
      554 xi22.xsa_dac.xswdac_2.xi2.      nand2_bhv          1.00 
      555 xi22.xsa_dac.xswdac_2.xi19.     nand2_bhv          1.00 
      556 xi22.xsa_dac.xswdac_2.xswp.     tgb                1.00 
      557 xi22.xsa_dac.xswdac_2.xswn.     tgb                1.00 
      558 xi22.xsa_dac.xswdac_2.xswin.    tgb                1.00 
      559 xi22.xsa_dac.xswdac_3.xi7.      inv_bhv            1.00 
      560 xi22.xsa_dac.xswdac_3.xi3.      inv_bhv            1.00 
      561 xi22.xsa_dac.xswdac_3.xi20.     inv_bhv            1.00 
      562 xi22.xsa_dac.xswdac_3.xi1.      inv_bhv            1.00 
      563 xi22.xsa_dac.xswdac_3.xi2.      nand2_bhv          1.00 
      564 xi22.xsa_dac.xswdac_3.xi19.     nand2_bhv          1.00 
      565 xi22.xsa_dac.xswdac_3.xswp.     tgb                1.00 
      566 xi22.xsa_dac.xswdac_3.xswn.     tgb                1.00 
      567 xi22.xsa_dac.xswdac_3.xswin.    tgb                1.00 
      568 xi22.xsa_dac.xswdac_4.xi7.      inv_bhv            1.00 
      569 xi22.xsa_dac.xswdac_4.xi3.      inv_bhv            1.00 
      570 xi22.xsa_dac.xswdac_4.xi20.     inv_bhv            1.00 
      571 xi22.xsa_dac.xswdac_4.xi1.      inv_bhv            1.00 
      572 xi22.xsa_dac.xswdac_4.xi2.      nand2_bhv          1.00 
      573 xi22.xsa_dac.xswdac_4.xi19.     nand2_bhv          1.00 
      574 xi22.xsa_dac.xswdac_4.xswp.     tgb                1.00 
      575 xi22.xsa_dac.xswdac_4.xswn.     tgb                1.00 
      576 xi22.xsa_dac.xswdac_4.xswin.    tgb                1.00 
      577 xi22.xsa_dac.xswdac_5.xi7.      inv_bhv            1.00 
      578 xi22.xsa_dac.xswdac_5.xi3.      inv_bhv            1.00 
      579 xi22.xsa_dac.xswdac_5.xi20.     inv_bhv            1.00 
      580 xi22.xsa_dac.xswdac_5.xi1.      inv_bhv            1.00 
      581 xi22.xsa_dac.xswdac_5.xi2.      nand2_bhv          1.00 
      582 xi22.xsa_dac.xswdac_5.xi19.     nand2_bhv          1.00 
      583 xi22.xsa_dac.xswdac_5.xswp.     tgb                1.00 
      584 xi22.xsa_dac.xswdac_5.xswn.     tgb                1.00 
      585 xi22.xsa_dac.xswdac_5.xswin.    tgb                1.00 
      586 xi22.xsa_dac.xswdac_6.xi7.      inv_bhv            1.00 
      587 xi22.xsa_dac.xswdac_6.xi3.      inv_bhv            1.00 
      588 xi22.xsa_dac.xswdac_6.xi20.     inv_bhv            1.00 
      589 xi22.xsa_dac.xswdac_6.xi1.      inv_bhv            1.00 
      590 xi22.xsa_dac.xswdac_6.xi2.      nand2_bhv          1.00 
      591 xi22.xsa_dac.xswdac_6.xi19.     nand2_bhv          1.00 
      592 xi22.xsa_dac.xswdac_6.xswp.     tgb                1.00 
      593 xi22.xsa_dac.xswdac_6.xswn.     tgb                1.00 
      594 xi22.xsa_dac.xswdac_6.xswin.    tgb                1.00 
      595 xi22.xsa_dac.xswdac_7.xi7.      inv_bhv            1.00 
      596 xi22.xsa_dac.xswdac_7.xi3.      inv_bhv            1.00 
      597 xi22.xsa_dac.xswdac_7.xi20.     inv_bhv            1.00 
      598 xi22.xsa_dac.xswdac_7.xi1.      inv_bhv            1.00 
      599 xi22.xsa_dac.xswdac_7.xi2.      nand2_bhv          1.00 
      600 xi22.xsa_dac.xswdac_7.xi19.     nand2_bhv          1.00 
      601 xi22.xsa_dac.xswdac_7.xswp.     tgb                1.00 
      602 xi22.xsa_dac.xswdac_7.xswn.     tgb                1.00 
      603 xi22.xsa_dac.xswdac_7.xswin.    tgb                1.00 
      604 xi22.xsa_dac.xi1.xp1.           pmos_b             1.00 
      605 xi22.xsa_dac.xi1.xn1.           nmos_b             1.00 
      606 xsa_logic.xrsh00.xi1.xp1.       pmos_b             1.00 
      607 xsa_logic.xrsh00.xi1.xn1.       nmos_b             1.00 
      608 xsa_logic.xrsh00.xi42.xn1.      nmos_b             1.00 
      609 xsa_logic.xrsh00.xi42.xi9.      nmos_b             1.00 
      610 xsa_logic.xrsh00.xi42.xp1.      pmos_b             1.00 
      611 xsa_logic.xrsh00.xi42.xi10.     pmos_b             1.00 
      612 xsa_logic.xrsh00.xi43.xn1.      nmos_b             1.00 
      613 xsa_logic.xrsh00.xi43.xi9.      nmos_b             1.00 
      614 xsa_logic.xrsh00.xi43.xp1.      pmos_b             1.00 
      615 xsa_logic.xrsh00.xi43.xi10.     pmos_b             1.00 
      616 xsa_logic.xrsh00.xi31.xn1.      nmos_b             1.00 
      617 xsa_logic.xrsh00.xi31.xi9.      nmos_b             1.00 
      618 xsa_logic.xrsh00.xi31.xp1.      pmos_b             1.00 
      619 xsa_logic.xrsh00.xi31.xi10.     pmos_b             1.00 
      620 xsa_logic.xrsh00.xi37.xn1.      nmos_b             1.00 
      621 xsa_logic.xrsh00.xi37.xi9.      nmos_b             1.00 
      622 xsa_logic.xrsh00.xi37.xp1.      pmos_b             1.00 
      623 xsa_logic.xrsh00.xi37.xi10.     pmos_b             1.00 
      624 xsa_logic.xdata3.xi1.xp1.       pmos_b             1.00 
      625 xsa_logic.xdata3.xi1.xn1.       nmos_b             1.00 
      626 xsa_logic.xdata3.xi42.xn1.      nmos_b             1.00 
      627 xsa_logic.xdata3.xi42.xi9.      nmos_b             1.00 
      628 xsa_logic.xdata3.xi42.xp1.      pmos_b             1.00 
      629 xsa_logic.xdata3.xi42.xi10.     pmos_b             1.00 
      630 xsa_logic.xdata3.xi43.xn1.      nmos_b             1.00 
      631 xsa_logic.xdata3.xi43.xi9.      nmos_b             1.00 
      632 xsa_logic.xdata3.xi43.xp1.      pmos_b             1.00 
      633 xsa_logic.xdata3.xi43.xi10.     pmos_b             1.00 
      634 xsa_logic.xdata3.xi31.xn1.      nmos_b             1.00 
      635 xsa_logic.xdata3.xi31.xi9.      nmos_b             1.00 
      636 xsa_logic.xdata3.xi31.xp1.      pmos_b             1.00 
      637 xsa_logic.xdata3.xi31.xi10.     pmos_b             1.00 
      638 xsa_logic.xdata3.xi37.xn1.      nmos_b             1.00 
      639 xsa_logic.xdata3.xi37.xi9.      nmos_b             1.00 
      640 xsa_logic.xdata3.xi37.xp1.      pmos_b             1.00 
      641 xsa_logic.xdata3.xi37.xi10.     pmos_b             1.00 
      642 xsa_logic.xdata2.xi1.xp1.       pmos_b             1.00 
      643 xsa_logic.xdata2.xi1.xn1.       nmos_b             1.00 
      644 xsa_logic.xdata2.xi42.xn1.      nmos_b             1.00 
      645 xsa_logic.xdata2.xi42.xi9.      nmos_b             1.00 
      646 xsa_logic.xdata2.xi42.xp1.      pmos_b             1.00 
      647 xsa_logic.xdata2.xi42.xi10.     pmos_b             1.00 
      648 xsa_logic.xdata2.xi43.xn1.      nmos_b             1.00 
      649 xsa_logic.xdata2.xi43.xi9.      nmos_b             1.00 
      650 xsa_logic.xdata2.xi43.xp1.      pmos_b             1.00 
      651 xsa_logic.xdata2.xi43.xi10.     pmos_b             1.00 
      652 xsa_logic.xdata2.xi31.xn1.      nmos_b             1.00 
      653 xsa_logic.xdata2.xi31.xi9.      nmos_b             1.00 
      654 xsa_logic.xdata2.xi31.xp1.      pmos_b             1.00 
      655 xsa_logic.xdata2.xi31.xi10.     pmos_b             1.00 
      656 xsa_logic.xdata2.xi37.xn1.      nmos_b             1.00 
      657 xsa_logic.xdata2.xi37.xi9.      nmos_b             1.00 
      658 xsa_logic.xdata2.xi37.xp1.      pmos_b             1.00 
      659 xsa_logic.xdata2.xi37.xi10.     pmos_b             1.00 
      660 xsa_logic.xdata1.xi1.xp1.       pmos_b             1.00 
      661 xsa_logic.xdata1.xi1.xn1.       nmos_b             1.00 
      662 xsa_logic.xdata1.xi42.xn1.      nmos_b             1.00 
      663 xsa_logic.xdata1.xi42.xi9.      nmos_b             1.00 
      664 xsa_logic.xdata1.xi42.xp1.      pmos_b             1.00 
      665 xsa_logic.xdata1.xi42.xi10.     pmos_b             1.00 
      666 xsa_logic.xdata1.xi43.xn1.      nmos_b             1.00 
      667 xsa_logic.xdata1.xi43.xi9.      nmos_b             1.00 
      668 xsa_logic.xdata1.xi43.xp1.      pmos_b             1.00 
      669 xsa_logic.xdata1.xi43.xi10.     pmos_b             1.00 
      670 xsa_logic.xdata1.xi31.xn1.      nmos_b             1.00 
      671 xsa_logic.xdata1.xi31.xi9.      nmos_b             1.00 
      672 xsa_logic.xdata1.xi31.xp1.      pmos_b             1.00 
      673 xsa_logic.xdata1.xi31.xi10.     pmos_b             1.00 
      674 xsa_logic.xdata1.xi37.xn1.      nmos_b             1.00 
      675 xsa_logic.xdata1.xi37.xi9.      nmos_b             1.00 
      676 xsa_logic.xdata1.xi37.xp1.      pmos_b             1.00 
      677 xsa_logic.xdata1.xi37.xi10.     pmos_b             1.00 
      678 xsa_logic.xdata00.xi1.xp1.      pmos_b             1.00 
      679 xsa_logic.xdata00.xi1.xn1.      nmos_b             1.00 
      680 xsa_logic.xdata00.xi42.xn1.     nmos_b             1.00 
      681 xsa_logic.xdata00.xi42.xi9.     nmos_b             1.00 
      682 xsa_logic.xdata00.xi42.xp1.     pmos_b             1.00 
      683 xsa_logic.xdata00.xi42.xi10.    pmos_b             1.00 
      684 xsa_logic.xdata00.xi43.xn1.     nmos_b             1.00 
      685 xsa_logic.xdata00.xi43.xi9.     nmos_b             1.00 
      686 xsa_logic.xdata00.xi43.xp1.     pmos_b             1.00 
      687 xsa_logic.xdata00.xi43.xi10.    pmos_b             1.00 
      688 xsa_logic.xdata00.xi31.xn1.     nmos_b             1.00 
      689 xsa_logic.xdata00.xi31.xi9.     nmos_b             1.00 
      690 xsa_logic.xdata00.xi31.xp1.     pmos_b             1.00 
      691 xsa_logic.xdata00.xi31.xi10.    pmos_b             1.00 
      692 xsa_logic.xdata00.xi37.xn1.     nmos_b             1.00 
      693 xsa_logic.xdata00.xi37.xi9.     nmos_b             1.00 
      694 xsa_logic.xdata00.xi37.xp1.     pmos_b             1.00 
      695 xsa_logic.xdata00.xi37.xi10.    pmos_b             1.00 
      696 xsa_logic.xdata0.xi1.xp1.       pmos_b             1.00 
      697 xsa_logic.xdata0.xi1.xn1.       nmos_b             1.00 
      698 xsa_logic.xdata0.xi42.xn1.      nmos_b             1.00 
      699 xsa_logic.xdata0.xi42.xi9.      nmos_b             1.00 
      700 xsa_logic.xdata0.xi42.xp1.      pmos_b             1.00 
      701 xsa_logic.xdata0.xi42.xi10.     pmos_b             1.00 
      702 xsa_logic.xdata0.xi43.xn1.      nmos_b             1.00 
      703 xsa_logic.xdata0.xi43.xi9.      nmos_b             1.00 
      704 xsa_logic.xdata0.xi43.xp1.      pmos_b             1.00 
      705 xsa_logic.xdata0.xi43.xi10.     pmos_b             1.00 
      706 xsa_logic.xdata0.xi31.xn1.      nmos_b             1.00 
      707 xsa_logic.xdata0.xi31.xi9.      nmos_b             1.00 
      708 xsa_logic.xdata0.xi31.xp1.      pmos_b             1.00 
      709 xsa_logic.xdata0.xi31.xi10.     pmos_b             1.00 
      710 xsa_logic.xdata0.xi37.xn1.      nmos_b             1.00 
      711 xsa_logic.xdata0.xi37.xi9.      nmos_b             1.00 
      712 xsa_logic.xdata0.xi37.xp1.      pmos_b             1.00 
      713 xsa_logic.xdata0.xi37.xi10.     pmos_b             1.00 
      714 xsa_logic.xdata5.xi1.xp1.       pmos_b             1.00 
      715 xsa_logic.xdata5.xi1.xn1.       nmos_b             1.00 
      716 xsa_logic.xdata5.xi42.xn1.      nmos_b             1.00 
      717 xsa_logic.xdata5.xi42.xi9.      nmos_b             1.00 
      718 xsa_logic.xdata5.xi42.xp1.      pmos_b             1.00 
      719 xsa_logic.xdata5.xi42.xi10.     pmos_b             1.00 
      720 xsa_logic.xdata5.xi43.xn1.      nmos_b             1.00 
      721 xsa_logic.xdata5.xi43.xi9.      nmos_b             1.00 
      722 xsa_logic.xdata5.xi43.xp1.      pmos_b             1.00 
      723 xsa_logic.xdata5.xi43.xi10.     pmos_b             1.00 
      724 xsa_logic.xdata5.xi31.xn1.      nmos_b             1.00 
      725 xsa_logic.xdata5.xi31.xi9.      nmos_b             1.00 
      726 xsa_logic.xdata5.xi31.xp1.      pmos_b             1.00 
      727 xsa_logic.xdata5.xi31.xi10.     pmos_b             1.00 
      728 xsa_logic.xdata5.xi37.xn1.      nmos_b             1.00 
      729 xsa_logic.xdata5.xi37.xi9.      nmos_b             1.00 
      730 xsa_logic.xdata5.xi37.xp1.      pmos_b             1.00 
      731 xsa_logic.xdata5.xi37.xi10.     pmos_b             1.00 
      732 xsa_logic.xrsh0.xi1.xp1.        pmos_b             1.00 
      733 xsa_logic.xrsh0.xi1.xn1.        nmos_b             1.00 
      734 xsa_logic.xrsh0.xi42.xn1.       nmos_b             1.00 
      735 xsa_logic.xrsh0.xi42.xi9.       nmos_b             1.00 
      736 xsa_logic.xrsh0.xi42.xp1.       pmos_b             1.00 
      737 xsa_logic.xrsh0.xi42.xi10.      pmos_b             1.00 
      738 xsa_logic.xrsh0.xi43.xn1.       nmos_b             1.00 
      739 xsa_logic.xrsh0.xi43.xi9.       nmos_b             1.00 
      740 xsa_logic.xrsh0.xi43.xp1.       pmos_b             1.00 
      741 xsa_logic.xrsh0.xi43.xi10.      pmos_b             1.00 
      742 xsa_logic.xrsh0.xi31.xn1.       nmos_b             1.00 
      743 xsa_logic.xrsh0.xi31.xi9.       nmos_b             1.00 
      744 xsa_logic.xrsh0.xi31.xp1.       pmos_b             1.00 
      745 xsa_logic.xrsh0.xi31.xi10.      pmos_b             1.00 
      746 xsa_logic.xrsh0.xi37.xn1.       nmos_b             1.00 
      747 xsa_logic.xrsh0.xi37.xi9.       nmos_b             1.00 
      748 xsa_logic.xrsh0.xi37.xp1.       pmos_b             1.00 
      749 xsa_logic.xrsh0.xi37.xi10.      pmos_b             1.00 
      750 xsa_logic.xrsh3.xi1.xp1.        pmos_b             1.00 
      751 xsa_logic.xrsh3.xi1.xn1.        nmos_b             1.00 
      752 xsa_logic.xrsh3.xi42.xn1.       nmos_b             1.00 
      753 xsa_logic.xrsh3.xi42.xi9.       nmos_b             1.00 
      754 xsa_logic.xrsh3.xi42.xp1.       pmos_b             1.00 
      755 xsa_logic.xrsh3.xi42.xi10.      pmos_b             1.00 
      756 xsa_logic.xrsh3.xi43.xn1.       nmos_b             1.00 
      757 xsa_logic.xrsh3.xi43.xi9.       nmos_b             1.00 
      758 xsa_logic.xrsh3.xi43.xp1.       pmos_b             1.00 
      759 xsa_logic.xrsh3.xi43.xi10.      pmos_b             1.00 
      760 xsa_logic.xrsh3.xi31.xn1.       nmos_b             1.00 
      761 xsa_logic.xrsh3.xi31.xi9.       nmos_b             1.00 
      762 xsa_logic.xrsh3.xi31.xp1.       pmos_b             1.00 
      763 xsa_logic.xrsh3.xi31.xi10.      pmos_b             1.00 
      764 xsa_logic.xrsh3.xi37.xn1.       nmos_b             1.00 
      765 xsa_logic.xrsh3.xi37.xi9.       nmos_b             1.00 
      766 xsa_logic.xrsh3.xi37.xp1.       pmos_b             1.00 
      767 xsa_logic.xrsh3.xi37.xi10.      pmos_b             1.00 
      768 xsa_logic.xrsh2.xi1.xp1.        pmos_b             1.00 
      769 xsa_logic.xrsh2.xi1.xn1.        nmos_b             1.00 
      770 xsa_logic.xrsh2.xi42.xn1.       nmos_b             1.00 
      771 xsa_logic.xrsh2.xi42.xi9.       nmos_b             1.00 
      772 xsa_logic.xrsh2.xi42.xp1.       pmos_b             1.00 
      773 xsa_logic.xrsh2.xi42.xi10.      pmos_b             1.00 
      774 xsa_logic.xrsh2.xi43.xn1.       nmos_b             1.00 
      775 xsa_logic.xrsh2.xi43.xi9.       nmos_b             1.00 
      776 xsa_logic.xrsh2.xi43.xp1.       pmos_b             1.00 
      777 xsa_logic.xrsh2.xi43.xi10.      pmos_b             1.00 
      778 xsa_logic.xrsh2.xi31.xn1.       nmos_b             1.00 
      779 xsa_logic.xrsh2.xi31.xi9.       nmos_b             1.00 
      780 xsa_logic.xrsh2.xi31.xp1.       pmos_b             1.00 
      781 xsa_logic.xrsh2.xi31.xi10.      pmos_b             1.00 
      782 xsa_logic.xrsh2.xi37.xn1.       nmos_b             1.00 
      783 xsa_logic.xrsh2.xi37.xi9.       nmos_b             1.00 
      784 xsa_logic.xrsh2.xi37.xp1.       pmos_b             1.00 
      785 xsa_logic.xrsh2.xi37.xi10.      pmos_b             1.00 
      786 xsa_logic.xrsh1.xi1.xp1.        pmos_b             1.00 
      787 xsa_logic.xrsh1.xi1.xn1.        nmos_b             1.00 
      788 xsa_logic.xrsh1.xi42.xn1.       nmos_b             1.00 
      789 xsa_logic.xrsh1.xi42.xi9.       nmos_b             1.00 
      790 xsa_logic.xrsh1.xi42.xp1.       pmos_b             1.00 
      791 xsa_logic.xrsh1.xi42.xi10.      pmos_b             1.00 
      792 xsa_logic.xrsh1.xi43.xn1.       nmos_b             1.00 
      793 xsa_logic.xrsh1.xi43.xi9.       nmos_b             1.00 
      794 xsa_logic.xrsh1.xi43.xp1.       pmos_b             1.00 
      795 xsa_logic.xrsh1.xi43.xi10.      pmos_b             1.00 
      796 xsa_logic.xrsh1.xi31.xn1.       nmos_b             1.00 
      797 xsa_logic.xrsh1.xi31.xi9.       nmos_b             1.00 
      798 xsa_logic.xrsh1.xi31.xp1.       pmos_b             1.00 
      799 xsa_logic.xrsh1.xi31.xi10.      pmos_b             1.00 
      800 xsa_logic.xrsh1.xi37.xn1.       nmos_b             1.00 
      801 xsa_logic.xrsh1.xi37.xi9.       nmos_b             1.00 
      802 xsa_logic.xrsh1.xi37.xp1.       pmos_b             1.00 
      803 xsa_logic.xrsh1.xi37.xi10.      pmos_b             1.00 
      804 xsa_logic.xrsh4.xi1.xp1.        pmos_b             1.00 
      805 xsa_logic.xrsh4.xi1.xn1.        nmos_b             1.00 
      806 xsa_logic.xrsh4.xi42.xn1.       nmos_b             1.00 
      807 xsa_logic.xrsh4.xi42.xi9.       nmos_b             1.00 
      808 xsa_logic.xrsh4.xi42.xp1.       pmos_b             1.00 
      809 xsa_logic.xrsh4.xi42.xi10.      pmos_b             1.00 
      810 xsa_logic.xrsh4.xi43.xn1.       nmos_b             1.00 
      811 xsa_logic.xrsh4.xi43.xi9.       nmos_b             1.00 
      812 xsa_logic.xrsh4.xi43.xp1.       pmos_b             1.00 
      813 xsa_logic.xrsh4.xi43.xi10.      pmos_b             1.00 
      814 xsa_logic.xrsh4.xi31.xn1.       nmos_b             1.00 
      815 xsa_logic.xrsh4.xi31.xi9.       nmos_b             1.00 
      816 xsa_logic.xrsh4.xi31.xp1.       pmos_b             1.00 
      817 xsa_logic.xrsh4.xi31.xi10.      pmos_b             1.00 
      818 xsa_logic.xrsh4.xi37.xn1.       nmos_b             1.00 
      819 xsa_logic.xrsh4.xi37.xi9.       nmos_b             1.00 
      820 xsa_logic.xrsh4.xi37.xp1.       pmos_b             1.00 
      821 xsa_logic.xrsh4.xi37.xi10.      pmos_b             1.00 
      822 xsa_logic.xdata7.xi1.xp1.       pmos_b             1.00 
      823 xsa_logic.xdata7.xi1.xn1.       nmos_b             1.00 
      824 xsa_logic.xdata7.xi42.xn1.      nmos_b             1.00 
      825 xsa_logic.xdata7.xi42.xi9.      nmos_b             1.00 
      826 xsa_logic.xdata7.xi42.xp1.      pmos_b             1.00 
      827 xsa_logic.xdata7.xi42.xi10.     pmos_b             1.00 
      828 xsa_logic.xdata7.xi43.xn1.      nmos_b             1.00 
      829 xsa_logic.xdata7.xi43.xi9.      nmos_b             1.00 
      830 xsa_logic.xdata7.xi43.xp1.      pmos_b             1.00 
      831 xsa_logic.xdata7.xi43.xi10.     pmos_b             1.00 
      832 xsa_logic.xdata7.xi31.xn1.      nmos_b             1.00 
      833 xsa_logic.xdata7.xi31.xi9.      nmos_b             1.00 
      834 xsa_logic.xdata7.xi31.xp1.      pmos_b             1.00 
      835 xsa_logic.xdata7.xi31.xi10.     pmos_b             1.00 
      836 xsa_logic.xdata7.xi37.xn1.      nmos_b             1.00 
      837 xsa_logic.xdata7.xi37.xi9.      nmos_b             1.00 
      838 xsa_logic.xdata7.xi37.xp1.      pmos_b             1.00 
      839 xsa_logic.xdata7.xi37.xi10.     pmos_b             1.00 
      840 xsa_logic.xrsh5.xi1.xp1.        pmos_b             1.00 
      841 xsa_logic.xrsh5.xi1.xn1.        nmos_b             1.00 
      842 xsa_logic.xrsh5.xi42.xn1.       nmos_b             1.00 
      843 xsa_logic.xrsh5.xi42.xi9.       nmos_b             1.00 
      844 xsa_logic.xrsh5.xi42.xp1.       pmos_b             1.00 
      845 xsa_logic.xrsh5.xi42.xi10.      pmos_b             1.00 
      846 xsa_logic.xrsh5.xi43.xn1.       nmos_b             1.00 
      847 xsa_logic.xrsh5.xi43.xi9.       nmos_b             1.00 
      848 xsa_logic.xrsh5.xi43.xp1.       pmos_b             1.00 
      849 xsa_logic.xrsh5.xi43.xi10.      pmos_b             1.00 
      850 xsa_logic.xrsh5.xi31.xn1.       nmos_b             1.00 
      851 xsa_logic.xrsh5.xi31.xi9.       nmos_b             1.00 
      852 xsa_logic.xrsh5.xi31.xp1.       pmos_b             1.00 
      853 xsa_logic.xrsh5.xi31.xi10.      pmos_b             1.00 
      854 xsa_logic.xrsh5.xi37.xn1.       nmos_b             1.00 
      855 xsa_logic.xrsh5.xi37.xi9.       nmos_b             1.00 
      856 xsa_logic.xrsh5.xi37.xp1.       pmos_b             1.00 
      857 xsa_logic.xrsh5.xi37.xi10.      pmos_b             1.00 
      858 xsa_logic.xdata6.xi1.xp1.       pmos_b             1.00 
      859 xsa_logic.xdata6.xi1.xn1.       nmos_b             1.00 
      860 xsa_logic.xdata6.xi42.xn1.      nmos_b             1.00 
      861 xsa_logic.xdata6.xi42.xi9.      nmos_b             1.00 
      862 xsa_logic.xdata6.xi42.xp1.      pmos_b             1.00 
      863 xsa_logic.xdata6.xi42.xi10.     pmos_b             1.00 
      864 xsa_logic.xdata6.xi43.xn1.      nmos_b             1.00 
      865 xsa_logic.xdata6.xi43.xi9.      nmos_b             1.00 
      866 xsa_logic.xdata6.xi43.xp1.      pmos_b             1.00 
      867 xsa_logic.xdata6.xi43.xi10.     pmos_b             1.00 
      868 xsa_logic.xdata6.xi31.xn1.      nmos_b             1.00 
      869 xsa_logic.xdata6.xi31.xi9.      nmos_b             1.00 
      870 xsa_logic.xdata6.xi31.xp1.      pmos_b             1.00 
      871 xsa_logic.xdata6.xi31.xi10.     pmos_b             1.00 
      872 xsa_logic.xdata6.xi37.xn1.      nmos_b             1.00 
      873 xsa_logic.xdata6.xi37.xi9.      nmos_b             1.00 
      874 xsa_logic.xdata6.xi37.xp1.      pmos_b             1.00 
      875 xsa_logic.xdata6.xi37.xi10.     pmos_b             1.00 
      876 xsa_logic.xdata4.xi1.xp1.       pmos_b             1.00 
      877 xsa_logic.xdata4.xi1.xn1.       nmos_b             1.00 
      878 xsa_logic.xdata4.xi42.xn1.      nmos_b             1.00 
      879 xsa_logic.xdata4.xi42.xi9.      nmos_b             1.00 
      880 xsa_logic.xdata4.xi42.xp1.      pmos_b             1.00 
      881 xsa_logic.xdata4.xi42.xi10.     pmos_b             1.00 
      882 xsa_logic.xdata4.xi43.xn1.      nmos_b             1.00 
      883 xsa_logic.xdata4.xi43.xi9.      nmos_b             1.00 
      884 xsa_logic.xdata4.xi43.xp1.      pmos_b             1.00 
      885 xsa_logic.xdata4.xi43.xi10.     pmos_b             1.00 
      886 xsa_logic.xdata4.xi31.xn1.      nmos_b             1.00 
      887 xsa_logic.xdata4.xi31.xi9.      nmos_b             1.00 
      888 xsa_logic.xdata4.xi31.xp1.      pmos_b             1.00 
      889 xsa_logic.xdata4.xi31.xi10.     pmos_b             1.00 
      890 xsa_logic.xdata4.xi37.xn1.      nmos_b             1.00 
      891 xsa_logic.xdata4.xi37.xi9.      nmos_b             1.00 
      892 xsa_logic.xdata4.xi37.xp1.      pmos_b             1.00 
      893 xsa_logic.xdata4.xi37.xi10.     pmos_b             1.00 
      894 xsa_logic.xrsh6.xi1.xp1.        pmos_b             1.00 
      895 xsa_logic.xrsh6.xi1.xn1.        nmos_b             1.00 
      896 xsa_logic.xrsh6.xi42.xn1.       nmos_b             1.00 
      897 xsa_logic.xrsh6.xi42.xi9.       nmos_b             1.00 
      898 xsa_logic.xrsh6.xi42.xp1.       pmos_b             1.00 
      899 xsa_logic.xrsh6.xi42.xi10.      pmos_b             1.00 
      900 xsa_logic.xrsh6.xi43.xn1.       nmos_b             1.00 
      901 xsa_logic.xrsh6.xi43.xi9.       nmos_b             1.00 
      902 xsa_logic.xrsh6.xi43.xp1.       pmos_b             1.00 
      903 xsa_logic.xrsh6.xi43.xi10.      pmos_b             1.00 
      904 xsa_logic.xrsh6.xi31.xn1.       nmos_b             1.00 
      905 xsa_logic.xrsh6.xi31.xi9.       nmos_b             1.00 
      906 xsa_logic.xrsh6.xi31.xp1.       pmos_b             1.00 
      907 xsa_logic.xrsh6.xi31.xi10.      pmos_b             1.00 
      908 xsa_logic.xrsh6.xi37.xn1.       nmos_b             1.00 
      909 xsa_logic.xrsh6.xi37.xi9.       nmos_b             1.00 
      910 xsa_logic.xrsh6.xi37.xp1.       pmos_b             1.00 
      911 xsa_logic.xrsh6.xi37.xi10.      pmos_b             1.00 
      912 xsa_logic.xrsh7.xi1.xp1.        pmos_b             1.00 
      913 xsa_logic.xrsh7.xi1.xn1.        nmos_b             1.00 
      914 xsa_logic.xrsh7.xi42.xn1.       nmos_b             1.00 
      915 xsa_logic.xrsh7.xi42.xi9.       nmos_b             1.00 
      916 xsa_logic.xrsh7.xi42.xp1.       pmos_b             1.00 
      917 xsa_logic.xrsh7.xi42.xi10.      pmos_b             1.00 
      918 xsa_logic.xrsh7.xi43.xn1.       nmos_b             1.00 
      919 xsa_logic.xrsh7.xi43.xi9.       nmos_b             1.00 
      920 xsa_logic.xrsh7.xi43.xp1.       pmos_b             1.00 
      921 xsa_logic.xrsh7.xi43.xi10.      pmos_b             1.00 
      922 xsa_logic.xrsh7.xi31.xn1.       nmos_b             1.00 
      923 xsa_logic.xrsh7.xi31.xi9.       nmos_b             1.00 
      924 xsa_logic.xrsh7.xi31.xp1.       pmos_b             1.00 
      925 xsa_logic.xrsh7.xi31.xi10.      pmos_b             1.00 
      926 xsa_logic.xrsh7.xi37.xn1.       nmos_b             1.00 
      927 xsa_logic.xrsh7.xi37.xi9.       nmos_b             1.00 
      928 xsa_logic.xrsh7.xi37.xp1.       pmos_b             1.00 
      929 xsa_logic.xrsh7.xi37.xi10.      pmos_b             1.00 
      930 xi23.xsa_dac.xswdac_0.xi7.xp1.  pmos_b             1.00 
      931 xi23.xsa_dac.xswdac_0.xi7.xn1.  nmos_b             1.00 
      932 xi23.xsa_dac.xswdac_0.xi3.xp1.  pmos_b             1.00 
      933 xi23.xsa_dac.xswdac_0.xi3.xn1.  nmos_b             1.00 
      934 xi23.xsa_dac.xswdac_0.xi20.xp1. pmos_b             1.00 
      935 xi23.xsa_dac.xswdac_0.xi20.xn1. nmos_b             1.00 
      936 xi23.xsa_dac.xswdac_0.xi1.xp1.  pmos_b             1.00 
      937 xi23.xsa_dac.xswdac_0.xi1.xn1.  nmos_b             1.00 
      938 xi23.xsa_dac.xswdac_0.xi2.xn1.  nmos_b             1.00 
      939 xi23.xsa_dac.xswdac_0.xi2.xi9.  nmos_b             1.00 
      940 xi23.xsa_dac.xswdac_0.xi2.xp1.  pmos_b             1.00 
      941 xi23.xsa_dac.xswdac_0.xi2.xi10. pmos_b             1.00 
      942 xi23.xsa_dac.xswdac_0.xi19.xn1. nmos_b             1.00 
      943 xi23.xsa_dac.xswdac_0.xi19.xi9. nmos_b             1.00 
      944 xi23.xsa_dac.xswdac_0.xi19.xp1. pmos_b             1.00 
      945 xi23.xsa_dac.xswdac_0.xi19.xi10.
                                            pmos_b             1.00 
      946 xi23.xsa_dac.xswdac_1.xi7.xp1.  pmos_b             1.00 
      947 xi23.xsa_dac.xswdac_1.xi7.xn1.  nmos_b             1.00 
      948 xi23.xsa_dac.xswdac_1.xi3.xp1.  pmos_b             1.00 
      949 xi23.xsa_dac.xswdac_1.xi3.xn1.  nmos_b             1.00 
      950 xi23.xsa_dac.xswdac_1.xi20.xp1. pmos_b             1.00 
      951 xi23.xsa_dac.xswdac_1.xi20.xn1. nmos_b             1.00 
      952 xi23.xsa_dac.xswdac_1.xi1.xp1.  pmos_b             1.00 
      953 xi23.xsa_dac.xswdac_1.xi1.xn1.  nmos_b             1.00 
      954 xi23.xsa_dac.xswdac_1.xi2.xn1.  nmos_b             1.00 
      955 xi23.xsa_dac.xswdac_1.xi2.xi9.  nmos_b             1.00 
      956 xi23.xsa_dac.xswdac_1.xi2.xp1.  pmos_b             1.00 
      957 xi23.xsa_dac.xswdac_1.xi2.xi10. pmos_b             1.00 
      958 xi23.xsa_dac.xswdac_1.xi19.xn1. nmos_b             1.00 
      959 xi23.xsa_dac.xswdac_1.xi19.xi9. nmos_b             1.00 
      960 xi23.xsa_dac.xswdac_1.xi19.xp1. pmos_b             1.00 
      961 xi23.xsa_dac.xswdac_1.xi19.xi10.
                                            pmos_b             1.00 
      962 xi23.xsa_dac.xswdac_2.xi7.xp1.  pmos_b             1.00 
      963 xi23.xsa_dac.xswdac_2.xi7.xn1.  nmos_b             1.00 
      964 xi23.xsa_dac.xswdac_2.xi3.xp1.  pmos_b             1.00 
      965 xi23.xsa_dac.xswdac_2.xi3.xn1.  nmos_b             1.00 
      966 xi23.xsa_dac.xswdac_2.xi20.xp1. pmos_b             1.00 
      967 xi23.xsa_dac.xswdac_2.xi20.xn1. nmos_b             1.00 
      968 xi23.xsa_dac.xswdac_2.xi1.xp1.  pmos_b             1.00 
      969 xi23.xsa_dac.xswdac_2.xi1.xn1.  nmos_b             1.00 
      970 xi23.xsa_dac.xswdac_2.xi2.xn1.  nmos_b             1.00 
      971 xi23.xsa_dac.xswdac_2.xi2.xi9.  nmos_b             1.00 
      972 xi23.xsa_dac.xswdac_2.xi2.xp1.  pmos_b             1.00 
      973 xi23.xsa_dac.xswdac_2.xi2.xi10. pmos_b             1.00 
      974 xi23.xsa_dac.xswdac_2.xi19.xn1. nmos_b             1.00 
      975 xi23.xsa_dac.xswdac_2.xi19.xi9. nmos_b             1.00 
      976 xi23.xsa_dac.xswdac_2.xi19.xp1. pmos_b             1.00 
      977 xi23.xsa_dac.xswdac_2.xi19.xi10.
                                            pmos_b             1.00 
      978 xi23.xsa_dac.xswdac_3.xi7.xp1.  pmos_b             1.00 
      979 xi23.xsa_dac.xswdac_3.xi7.xn1.  nmos_b             1.00 
      980 xi23.xsa_dac.xswdac_3.xi3.xp1.  pmos_b             1.00 
      981 xi23.xsa_dac.xswdac_3.xi3.xn1.  nmos_b             1.00 
      982 xi23.xsa_dac.xswdac_3.xi20.xp1. pmos_b             1.00 
      983 xi23.xsa_dac.xswdac_3.xi20.xn1. nmos_b             1.00 
      984 xi23.xsa_dac.xswdac_3.xi1.xp1.  pmos_b             1.00 
      985 xi23.xsa_dac.xswdac_3.xi1.xn1.  nmos_b             1.00 
      986 xi23.xsa_dac.xswdac_3.xi2.xn1.  nmos_b             1.00 
      987 xi23.xsa_dac.xswdac_3.xi2.xi9.  nmos_b             1.00 
      988 xi23.xsa_dac.xswdac_3.xi2.xp1.  pmos_b             1.00 
      989 xi23.xsa_dac.xswdac_3.xi2.xi10. pmos_b             1.00 
      990 xi23.xsa_dac.xswdac_3.xi19.xn1. nmos_b             1.00 
      991 xi23.xsa_dac.xswdac_3.xi19.xi9. nmos_b             1.00 
      992 xi23.xsa_dac.xswdac_3.xi19.xp1. pmos_b             1.00 
      993 xi23.xsa_dac.xswdac_3.xi19.xi10.
                                            pmos_b             1.00 
      994 xi23.xsa_dac.xswdac_4.xi7.xp1.  pmos_b             1.00 
      995 xi23.xsa_dac.xswdac_4.xi7.xn1.  nmos_b             1.00 
      996 xi23.xsa_dac.xswdac_4.xi3.xp1.  pmos_b             1.00 
      997 xi23.xsa_dac.xswdac_4.xi3.xn1.  nmos_b             1.00 
      998 xi23.xsa_dac.xswdac_4.xi20.xp1. pmos_b             1.00 
      999 xi23.xsa_dac.xswdac_4.xi20.xn1. nmos_b             1.00 
     1000 xi23.xsa_dac.xswdac_4.xi1.xp1.  pmos_b             1.00 
     1001 xi23.xsa_dac.xswdac_4.xi1.xn1.  nmos_b             1.00 
     1002 xi23.xsa_dac.xswdac_4.xi2.xn1.  nmos_b             1.00 
     1003 xi23.xsa_dac.xswdac_4.xi2.xi9.  nmos_b             1.00 
     1004 xi23.xsa_dac.xswdac_4.xi2.xp1.  pmos_b             1.00 
     1005 xi23.xsa_dac.xswdac_4.xi2.xi10. pmos_b             1.00 
     1006 xi23.xsa_dac.xswdac_4.xi19.xn1. nmos_b             1.00 
     1007 xi23.xsa_dac.xswdac_4.xi19.xi9. nmos_b             1.00 
     1008 xi23.xsa_dac.xswdac_4.xi19.xp1. pmos_b             1.00 
     1009 xi23.xsa_dac.xswdac_4.xi19.xi10.
                                            pmos_b             1.00 
     1010 xi23.xsa_dac.xswdac_5.xi7.xp1.  pmos_b             1.00 
     1011 xi23.xsa_dac.xswdac_5.xi7.xn1.  nmos_b             1.00 
     1012 xi23.xsa_dac.xswdac_5.xi3.xp1.  pmos_b             1.00 
     1013 xi23.xsa_dac.xswdac_5.xi3.xn1.  nmos_b             1.00 
     1014 xi23.xsa_dac.xswdac_5.xi20.xp1. pmos_b             1.00 
     1015 xi23.xsa_dac.xswdac_5.xi20.xn1. nmos_b             1.00 
     1016 xi23.xsa_dac.xswdac_5.xi1.xp1.  pmos_b             1.00 
     1017 xi23.xsa_dac.xswdac_5.xi1.xn1.  nmos_b             1.00 
     1018 xi23.xsa_dac.xswdac_5.xi2.xn1.  nmos_b             1.00 
     1019 xi23.xsa_dac.xswdac_5.xi2.xi9.  nmos_b             1.00 
     1020 xi23.xsa_dac.xswdac_5.xi2.xp1.  pmos_b             1.00 
     1021 xi23.xsa_dac.xswdac_5.xi2.xi10. pmos_b             1.00 
     1022 xi23.xsa_dac.xswdac_5.xi19.xn1. nmos_b             1.00 
     1023 xi23.xsa_dac.xswdac_5.xi19.xi9. nmos_b             1.00 
     1024 xi23.xsa_dac.xswdac_5.xi19.xp1. pmos_b             1.00 
     1025 xi23.xsa_dac.xswdac_5.xi19.xi10.
                                            pmos_b             1.00 
     1026 xi23.xsa_dac.xswdac_6.xi7.xp1.  pmos_b             1.00 
     1027 xi23.xsa_dac.xswdac_6.xi7.xn1.  nmos_b             1.00 
     1028 xi23.xsa_dac.xswdac_6.xi3.xp1.  pmos_b             1.00 
     1029 xi23.xsa_dac.xswdac_6.xi3.xn1.  nmos_b             1.00 
     1030 xi23.xsa_dac.xswdac_6.xi20.xp1. pmos_b             1.00 
     1031 xi23.xsa_dac.xswdac_6.xi20.xn1. nmos_b             1.00 
     1032 xi23.xsa_dac.xswdac_6.xi1.xp1.  pmos_b             1.00 
     1033 xi23.xsa_dac.xswdac_6.xi1.xn1.  nmos_b             1.00 
     1034 xi23.xsa_dac.xswdac_6.xi2.xn1.  nmos_b             1.00 
     1035 xi23.xsa_dac.xswdac_6.xi2.xi9.  nmos_b             1.00 
     1036 xi23.xsa_dac.xswdac_6.xi2.xp1.  pmos_b             1.00 
     1037 xi23.xsa_dac.xswdac_6.xi2.xi10. pmos_b             1.00 
     1038 xi23.xsa_dac.xswdac_6.xi19.xn1. nmos_b             1.00 
     1039 xi23.xsa_dac.xswdac_6.xi19.xi9. nmos_b             1.00 
     1040 xi23.xsa_dac.xswdac_6.xi19.xp1. pmos_b             1.00 
     1041 xi23.xsa_dac.xswdac_6.xi19.xi10.
                                            pmos_b             1.00 
     1042 xi23.xsa_dac.xswdac_7.xi7.xp1.  pmos_b             1.00 
     1043 xi23.xsa_dac.xswdac_7.xi7.xn1.  nmos_b             1.00 
     1044 xi23.xsa_dac.xswdac_7.xi3.xp1.  pmos_b             1.00 
     1045 xi23.xsa_dac.xswdac_7.xi3.xn1.  nmos_b             1.00 
     1046 xi23.xsa_dac.xswdac_7.xi20.xp1. pmos_b             1.00 
     1047 xi23.xsa_dac.xswdac_7.xi20.xn1. nmos_b             1.00 
     1048 xi23.xsa_dac.xswdac_7.xi1.xp1.  pmos_b             1.00 
     1049 xi23.xsa_dac.xswdac_7.xi1.xn1.  nmos_b             1.00 
     1050 xi23.xsa_dac.xswdac_7.xi2.xn1.  nmos_b             1.00 
     1051 xi23.xsa_dac.xswdac_7.xi2.xi9.  nmos_b             1.00 
     1052 xi23.xsa_dac.xswdac_7.xi2.xp1.  pmos_b             1.00 
     1053 xi23.xsa_dac.xswdac_7.xi2.xi10. pmos_b             1.00 
     1054 xi23.xsa_dac.xswdac_7.xi19.xn1. nmos_b             1.00 
     1055 xi23.xsa_dac.xswdac_7.xi19.xi9. nmos_b             1.00 
     1056 xi23.xsa_dac.xswdac_7.xi19.xp1. pmos_b             1.00 
     1057 xi23.xsa_dac.xswdac_7.xi19.xi10.
                                            pmos_b             1.00 
     1058 xi22.xsa_dac.xswdac_0.xi7.xp1.  pmos_b             1.00 
     1059 xi22.xsa_dac.xswdac_0.xi7.xn1.  nmos_b             1.00 
     1060 xi22.xsa_dac.xswdac_0.xi3.xp1.  pmos_b             1.00 
     1061 xi22.xsa_dac.xswdac_0.xi3.xn1.  nmos_b             1.00 
     1062 xi22.xsa_dac.xswdac_0.xi20.xp1. pmos_b             1.00 
     1063 xi22.xsa_dac.xswdac_0.xi20.xn1. nmos_b             1.00 
     1064 xi22.xsa_dac.xswdac_0.xi1.xp1.  pmos_b             1.00 
     1065 xi22.xsa_dac.xswdac_0.xi1.xn1.  nmos_b             1.00 
     1066 xi22.xsa_dac.xswdac_0.xi2.xn1.  nmos_b             1.00 
     1067 xi22.xsa_dac.xswdac_0.xi2.xi9.  nmos_b             1.00 
     1068 xi22.xsa_dac.xswdac_0.xi2.xp1.  pmos_b             1.00 
     1069 xi22.xsa_dac.xswdac_0.xi2.xi10. pmos_b             1.00 
     1070 xi22.xsa_dac.xswdac_0.xi19.xn1. nmos_b             1.00 
     1071 xi22.xsa_dac.xswdac_0.xi19.xi9. nmos_b             1.00 
     1072 xi22.xsa_dac.xswdac_0.xi19.xp1. pmos_b             1.00 
     1073 xi22.xsa_dac.xswdac_0.xi19.xi10.
                                            pmos_b             1.00 
     1074 xi22.xsa_dac.xswdac_1.xi7.xp1.  pmos_b             1.00 
     1075 xi22.xsa_dac.xswdac_1.xi7.xn1.  nmos_b             1.00 
     1076 xi22.xsa_dac.xswdac_1.xi3.xp1.  pmos_b             1.00 
     1077 xi22.xsa_dac.xswdac_1.xi3.xn1.  nmos_b             1.00 
     1078 xi22.xsa_dac.xswdac_1.xi20.xp1. pmos_b             1.00 
     1079 xi22.xsa_dac.xswdac_1.xi20.xn1. nmos_b             1.00 
     1080 xi22.xsa_dac.xswdac_1.xi1.xp1.  pmos_b             1.00 
     1081 xi22.xsa_dac.xswdac_1.xi1.xn1.  nmos_b             1.00 
     1082 xi22.xsa_dac.xswdac_1.xi2.xn1.  nmos_b             1.00 
     1083 xi22.xsa_dac.xswdac_1.xi2.xi9.  nmos_b             1.00 
     1084 xi22.xsa_dac.xswdac_1.xi2.xp1.  pmos_b             1.00 
     1085 xi22.xsa_dac.xswdac_1.xi2.xi10. pmos_b             1.00 
     1086 xi22.xsa_dac.xswdac_1.xi19.xn1. nmos_b             1.00 
     1087 xi22.xsa_dac.xswdac_1.xi19.xi9. nmos_b             1.00 
     1088 xi22.xsa_dac.xswdac_1.xi19.xp1. pmos_b             1.00 
     1089 xi22.xsa_dac.xswdac_1.xi19.xi10.
                                            pmos_b             1.00 
     1090 xi22.xsa_dac.xswdac_2.xi7.xp1.  pmos_b             1.00 
     1091 xi22.xsa_dac.xswdac_2.xi7.xn1.  nmos_b             1.00 
     1092 xi22.xsa_dac.xswdac_2.xi3.xp1.  pmos_b             1.00 
     1093 xi22.xsa_dac.xswdac_2.xi3.xn1.  nmos_b             1.00 
     1094 xi22.xsa_dac.xswdac_2.xi20.xp1. pmos_b             1.00 
     1095 xi22.xsa_dac.xswdac_2.xi20.xn1. nmos_b             1.00 
     1096 xi22.xsa_dac.xswdac_2.xi1.xp1.  pmos_b             1.00 
     1097 xi22.xsa_dac.xswdac_2.xi1.xn1.  nmos_b             1.00 
     1098 xi22.xsa_dac.xswdac_2.xi2.xn1.  nmos_b             1.00 
     1099 xi22.xsa_dac.xswdac_2.xi2.xi9.  nmos_b             1.00 
     1100 xi22.xsa_dac.xswdac_2.xi2.xp1.  pmos_b             1.00 
     1101 xi22.xsa_dac.xswdac_2.xi2.xi10. pmos_b             1.00 
     1102 xi22.xsa_dac.xswdac_2.xi19.xn1. nmos_b             1.00 
     1103 xi22.xsa_dac.xswdac_2.xi19.xi9. nmos_b             1.00 
     1104 xi22.xsa_dac.xswdac_2.xi19.xp1. pmos_b             1.00 
     1105 xi22.xsa_dac.xswdac_2.xi19.xi10.
                                            pmos_b             1.00 
     1106 xi22.xsa_dac.xswdac_3.xi7.xp1.  pmos_b             1.00 
     1107 xi22.xsa_dac.xswdac_3.xi7.xn1.  nmos_b             1.00 
     1108 xi22.xsa_dac.xswdac_3.xi3.xp1.  pmos_b             1.00 
     1109 xi22.xsa_dac.xswdac_3.xi3.xn1.  nmos_b             1.00 
     1110 xi22.xsa_dac.xswdac_3.xi20.xp1. pmos_b             1.00 
     1111 xi22.xsa_dac.xswdac_3.xi20.xn1. nmos_b             1.00 
     1112 xi22.xsa_dac.xswdac_3.xi1.xp1.  pmos_b             1.00 
     1113 xi22.xsa_dac.xswdac_3.xi1.xn1.  nmos_b             1.00 
     1114 xi22.xsa_dac.xswdac_3.xi2.xn1.  nmos_b             1.00 
     1115 xi22.xsa_dac.xswdac_3.xi2.xi9.  nmos_b             1.00 
     1116 xi22.xsa_dac.xswdac_3.xi2.xp1.  pmos_b             1.00 
     1117 xi22.xsa_dac.xswdac_3.xi2.xi10. pmos_b             1.00 
     1118 xi22.xsa_dac.xswdac_3.xi19.xn1. nmos_b             1.00 
     1119 xi22.xsa_dac.xswdac_3.xi19.xi9. nmos_b             1.00 
     1120 xi22.xsa_dac.xswdac_3.xi19.xp1. pmos_b             1.00 
     1121 xi22.xsa_dac.xswdac_3.xi19.xi10.
                                            pmos_b             1.00 
     1122 xi22.xsa_dac.xswdac_4.xi7.xp1.  pmos_b             1.00 
     1123 xi22.xsa_dac.xswdac_4.xi7.xn1.  nmos_b             1.00 
     1124 xi22.xsa_dac.xswdac_4.xi3.xp1.  pmos_b             1.00 
     1125 xi22.xsa_dac.xswdac_4.xi3.xn1.  nmos_b             1.00 
     1126 xi22.xsa_dac.xswdac_4.xi20.xp1. pmos_b             1.00 
     1127 xi22.xsa_dac.xswdac_4.xi20.xn1. nmos_b             1.00 
     1128 xi22.xsa_dac.xswdac_4.xi1.xp1.  pmos_b             1.00 
     1129 xi22.xsa_dac.xswdac_4.xi1.xn1.  nmos_b             1.00 
     1130 xi22.xsa_dac.xswdac_4.xi2.xn1.  nmos_b             1.00 
     1131 xi22.xsa_dac.xswdac_4.xi2.xi9.  nmos_b             1.00 
     1132 xi22.xsa_dac.xswdac_4.xi2.xp1.  pmos_b             1.00 
     1133 xi22.xsa_dac.xswdac_4.xi2.xi10. pmos_b             1.00 
     1134 xi22.xsa_dac.xswdac_4.xi19.xn1. nmos_b             1.00 
     1135 xi22.xsa_dac.xswdac_4.xi19.xi9. nmos_b             1.00 
     1136 xi22.xsa_dac.xswdac_4.xi19.xp1. pmos_b             1.00 
     1137 xi22.xsa_dac.xswdac_4.xi19.xi10.
                                            pmos_b             1.00 
     1138 xi22.xsa_dac.xswdac_5.xi7.xp1.  pmos_b             1.00 
     1139 xi22.xsa_dac.xswdac_5.xi7.xn1.  nmos_b             1.00 
     1140 xi22.xsa_dac.xswdac_5.xi3.xp1.  pmos_b             1.00 
     1141 xi22.xsa_dac.xswdac_5.xi3.xn1.  nmos_b             1.00 
     1142 xi22.xsa_dac.xswdac_5.xi20.xp1. pmos_b             1.00 
     1143 xi22.xsa_dac.xswdac_5.xi20.xn1. nmos_b             1.00 
     1144 xi22.xsa_dac.xswdac_5.xi1.xp1.  pmos_b             1.00 
     1145 xi22.xsa_dac.xswdac_5.xi1.xn1.  nmos_b             1.00 
     1146 xi22.xsa_dac.xswdac_5.xi2.xn1.  nmos_b             1.00 
     1147 xi22.xsa_dac.xswdac_5.xi2.xi9.  nmos_b             1.00 
     1148 xi22.xsa_dac.xswdac_5.xi2.xp1.  pmos_b             1.00 
     1149 xi22.xsa_dac.xswdac_5.xi2.xi10. pmos_b             1.00 
     1150 xi22.xsa_dac.xswdac_5.xi19.xn1. nmos_b             1.00 
     1151 xi22.xsa_dac.xswdac_5.xi19.xi9. nmos_b             1.00 
     1152 xi22.xsa_dac.xswdac_5.xi19.xp1. pmos_b             1.00 
[...]



 subckt        xsa_logi      xsa_logi      xsa_logi      xsa_logi
 element   832:g1        833:g1        834:g1        835:g1      
  r value      10.0000      1.000e+15      10.0000      1.000e+15



 subckt        xsa_logi      xsa_logi      xsa_logi      xsa_logi
 element   836:g1        837:g1        838:g1        839:g1      
  r value     1.000e+15     1.000e+15      10.0000       10.0000 



 subckt        xsa_logi      xsa_logi      xsa_logi      xsa_logi
 element   840:g1        841:g1        842:g1        843:g1      
  r value     1.000e+15      10.0000       10.0000      1.000e+15



 subckt        xsa_logi      xsa_logi      xsa_logi      xsa_logi
 element   844:g1        845:g1        846:g1        847:g1      
  r value      10.0000      1.000e+15     1.000e+15     1.000e+15



 subckt        xsa_logi      xsa_logi      xsa_logi      xsa_logi
 element   848:g1        849:g1        850:g1        851:g1      
  r value      10.0000       10.0000      1.000e+15     1.000e+15



 subckt        xsa_logi      xsa_logi      xsa_logi      xsa_logi
 element   852:g1        853:g1        854:g1        855:g1      
  r value      10.0000       10.0000       10.0000      1.000e+15



 subckt        xsa_logi      xsa_logi      xsa_logi      xsa_logi
 element   856:g1        857:g1        858:g1        859:g1      
  r value      10.0000      1.000e+15     1.000e+15      10.0000 



 subckt        xsa_logi      xsa_logi      xsa_logi      xsa_logi
 element   860:g1        861:g1        862:g1        863:g1      
  r value     1.000e+15     1.000e+15      10.0000       10.0000 



 subckt        xsa_logi      xsa_logi      xsa_logi      xsa_logi
 element   864:g1        865:g1        866:g1        867:g1      
  r value      10.0000      1.000e+15      10.0000      1.000e+15



 subckt        xsa_logi      xsa_logi      xsa_logi      xsa_logi
 element   868:g1        869:g1        870:g1        871:g1      
  r value      10.0000      1.000e+15      10.0000      1.000e+15



 subckt        xsa_logi      xsa_logi      xsa_logi      xsa_logi
 element   872:g1        873:g1        874:g1        875:g1      
  r value     1.000e+15     1.000e+15      10.0000       10.0000 



 subckt        xsa_logi      xsa_logi      xsa_logi      xsa_logi
 element   876:g1        877:g1        878:g1        879:g1      
  r value     1.000e+15      10.0000      1.000e+15     1.000e+15



 subckt        xsa_logi      xsa_logi      xsa_logi      xsa_logi
 element   880:g1        881:g1        882:g1        883:g1      
  r value      10.0000       10.0000       10.0000      1.000e+15



 subckt        xsa_logi      xsa_logi      xsa_logi      xsa_logi
 element   884:g1        885:g1        886:g1        887:g1      
  r value      10.0000      1.000e+15      10.0000      1.000e+15



 subckt        xsa_logi      xsa_logi      xsa_logi      xsa_logi
 element   888:g1        889:g1        890:g1        891:g1      
  r value      10.0000      1.000e+15     1.000e+15     1.000e+15



 subckt        xsa_logi      xsa_logi      xsa_logi      xsa_logi
 element   892:g1        893:g1        894:g1        895:g1      
  r value      10.0000       10.0000      1.000e+15      10.0000 



 subckt        xsa_logi      xsa_logi      xsa_logi      xsa_logi
 element   896:g1        897:g1        898:g1        899:g1      
  r value      10.0000      1.000e+15      10.0000      1.000e+15



 subckt        xsa_logi      xsa_logi      xsa_logi      xsa_logi
 element   900:g1        901:g1        902:g1        903:g1      
  r value     1.000e+15     1.000e+15      10.0000       10.0000 



 subckt        xsa_logi      xsa_logi      xsa_logi      xsa_logi
 element   904:g1        905:g1        906:g1        907:g1      
  r value     1.000e+15     1.000e+15      10.0000       10.0000 



 subckt        xsa_logi      xsa_logi      xsa_logi      xsa_logi
 element   908:g1        909:g1        910:g1        911:g1      
  r value      10.0000      1.000e+15      10.0000      1.000e+15



 subckt        xsa_logi      xsa_logi      xsa_logi      xsa_logi
 element   912:g1        913:g1        914:g1        915:g1      
  r value     1.000e+15      10.0000       10.0000      1.000e+15



 subckt        xsa_logi      xsa_logi      xsa_logi      xsa_logi
 element   916:g1        917:g1        918:g1        919:g1      
  r value      10.0000      1.000e+15     1.000e+15     1.000e+15



 subckt        xsa_logi      xsa_logi      xsa_logi      xsa_logi
 element   920:g1        921:g1        922:g1        923:g1      
  r value      10.0000       10.0000      1.000e+15     1.000e+15



 subckt        xsa_logi      xsa_logi      xsa_logi      xsa_logi
 element   924:g1        925:g1        926:g1        927:g1      
  r value      10.0000       10.0000       10.0000      1.000e+15



 subckt        xsa_logi      xsa_logi      xi23.xsa      xi23.xsa
 element   928:g1        929:g1        930:g1        931:g1      
  r value      10.0000      1.000e+15      10.0000      1.000e+15



 subckt        xi23.xsa      xi23.xsa      xi23.xsa      xi23.xsa
 element   932:g1        933:g1        934:g1        935:g1      
  r value     1.000e+15      10.0000       10.0000      1.000e+15



 subckt        xi23.xsa      xi23.xsa      xi23.xsa      xi23.xsa
 element   936:g1        937:g1        938:g1        939:g1      
  r value     1.000e+15      10.0000      1.000e+15      10.0000 



 subckt        xi23.xsa      xi23.xsa      xi23.xsa      xi23.xsa
 element   940:g1        941:g1        942:g1        943:g1      
  r value     1.000e+15      10.0000       10.0000       10.0000 



 subckt        xi23.xsa      xi23.xsa      xi23.xsa      xi23.xsa
 element   944:g1        945:g1        946:g1        947:g1      
  r value     1.000e+15     1.000e+15      10.0000      1.000e+15



 subckt        xi23.xsa      xi23.xsa      xi23.xsa      xi23.xsa
 element   948:g1        949:g1        950:g1        951:g1      
  r value     1.000e+15      10.0000       10.0000      1.000e+15



 subckt        xi23.xsa      xi23.xsa      xi23.xsa      xi23.xsa
 element   952:g1        953:g1        954:g1        955:g1      
  r value     1.000e+15      10.0000      1.000e+15      10.0000 



 subckt        xi23.xsa      xi23.xsa      xi23.xsa      xi23.xsa
 element   956:g1        957:g1        958:g1        959:g1      
  r value     1.000e+15      10.0000       10.0000       10.0000 



 subckt        xi23.xsa      xi23.xsa      xi23.xsa      xi23.xsa
 element   960:g1        961:g1        962:g1        963:g1      
  r value     1.000e+15     1.000e+15      10.0000      1.000e+15



 subckt        xi23.xsa      xi23.xsa      xi23.xsa      xi23.xsa
 element   964:g1        965:g1        966:g1        967:g1      
  r value     1.000e+15      10.0000       10.0000      1.000e+15



 subckt        xi23.xsa      xi23.xsa      xi23.xsa      xi23.xsa
 element   968:g1        969:g1        970:g1        971:g1      
  r value     1.000e+15      10.0000      1.000e+15      10.0000 



 subckt        xi23.xsa      xi23.xsa      xi23.xsa      xi23.xsa
 element   972:g1        973:g1        974:g1        975:g1      
  r value     1.000e+15      10.0000       10.0000       10.0000 



 subckt        xi23.xsa      xi23.xsa      xi23.xsa      xi23.xsa
 element   976:g1        977:g1        978:g1        979:g1      
  r value     1.000e+15     1.000e+15      10.0000      1.000e+15



 subckt        xi23.xsa      xi23.xsa      xi23.xsa      xi23.xsa
 element   980:g1        981:g1        982:g1        983:g1      
  r value     1.000e+15      10.0000       10.0000      1.000e+15



 subckt        xi23.xsa      xi23.xsa      xi23.xsa      xi23.xsa
 element   984:g1        985:g1        986:g1        987:g1      
  r value     1.000e+15      10.0000      1.000e+15      10.0000 



 subckt        xi23.xsa      xi23.xsa      xi23.xsa      xi23.xsa
 element   988:g1        989:g1        990:g1        991:g1      
  r value     1.000e+15      10.0000       10.0000       10.0000 



 subckt        xi23.xsa      xi23.xsa      xi23.xsa      xi23.xsa
 element   992:g1        993:g1        994:g1        995:g1      
  r value     1.000e+15     1.000e+15      10.0000      1.000e+15



 subckt        xi23.xsa      xi23.xsa      xi23.xsa      xi23.xsa
 element   996:g1        997:g1        998:g1        999:g1      
  r value     1.000e+15      10.0000       10.0000      1.000e+15



 subckt        xi23.xsa      xi23.xsa      xi23.xsa      xi23.xsa
 element  1000:g1       1001:g1       1002:g1       1003:g1      
  r value     1.000e+15      10.0000      1.000e+15      10.0000 



 subckt        xi23.xsa      xi23.xsa      xi23.xsa      xi23.xsa
 element  1004:g1       1005:g1       1006:g1       1007:g1      
  r value     1.000e+15      10.0000       10.0000       10.0000 



 subckt        xi23.xsa      xi23.xsa      xi23.xsa      xi23.xsa
 element  1008:g1       1009:g1       1010:g1       1011:g1      
  r value     1.000e+15     1.000e+15      10.0000      1.000e+15



 subckt        xi23.xsa      xi23.xsa      xi23.xsa      xi23.xsa
 element  1012:g1       1013:g1       1014:g1       1015:g1      
  r value     1.000e+15      10.0000       10.0000      1.000e+15



 subckt        xi23.xsa      xi23.xsa      xi23.xsa      xi23.xsa
 element  1016:g1       1017:g1       1018:g1       1019:g1      
  r value     1.000e+15      10.0000      1.000e+15      10.0000 



 subckt        xi23.xsa      xi23.xsa      xi23.xsa      xi23.xsa
 element  1020:g1       1021:g1       1022:g1       1023:g1      
  r value     1.000e+15      10.0000       10.0000       10.0000 



 subckt        xi23.xsa      xi23.xsa      xi23.xsa      xi23.xsa
 element  1024:g1       1025:g1       1026:g1       1027:g1      
  r value     1.000e+15     1.000e+15      10.0000      1.000e+15



 subckt        xi23.xsa      xi23.xsa      xi23.xsa      xi23.xsa
 element  1028:g1       1029:g1       1030:g1       1031:g1      
  r value     1.000e+15      10.0000       10.0000      1.000e+15



 subckt        xi23.xsa      xi23.xsa      xi23.xsa      xi23.xsa
 element  1032:g1       1033:g1       1034:g1       1035:g1      
  r value     1.000e+15      10.0000      1.000e+15      10.0000 



 subckt        xi23.xsa      xi23.xsa      xi23.xsa      xi23.xsa
 element  1036:g1       1037:g1       1038:g1       1039:g1      
  r value     1.000e+15      10.0000       10.0000       10.0000 



 subckt        xi23.xsa      xi23.xsa      xi23.xsa      xi23.xsa
 element  1040:g1       1041:g1       1042:g1       1043:g1      
  r value     1.000e+15     1.000e+15      10.0000      1.000e+15



 subckt        xi23.xsa      xi23.xsa      xi23.xsa      xi23.xsa
 element  1044:g1       1045:g1       1046:g1       1047:g1      
  r value     1.000e+15      10.0000       10.0000      1.000e+15



 subckt        xi23.xsa      xi23.xsa      xi23.xsa      xi23.xsa
 element  1048:g1       1049:g1       1050:g1       1051:g1      
  r value     1.000e+15      10.0000      1.000e+15      10.0000 



 subckt        xi23.xsa      xi23.xsa      xi23.xsa      xi23.xsa
 element  1052:g1       1053:g1       1054:g1       1055:g1      
  r value     1.000e+15      10.0000       10.0000       10.0000 



 subckt        xi23.xsa      xi23.xsa      xi22.xsa      xi22.xsa
 element  1056:g1       1057:g1       1058:g1       1059:g1      
  r value     1.000e+15     1.000e+15      10.0000      1.000e+15



 subckt        xi22.xsa      xi22.xsa      xi22.xsa      xi22.xsa
 element  1060:g1       1061:g1       1062:g1       1063:g1      
  r value     1.000e+15      10.0000       10.0000      1.000e+15



 subckt        xi22.xsa      xi22.xsa      xi22.xsa      xi22.xsa
 element  1064:g1       1065:g1       1066:g1       1067:g1      
  r value     1.000e+15      10.0000      1.000e+15      10.0000 



 subckt        xi22.xsa      xi22.xsa      xi22.xsa      xi22.xsa
 element  1068:g1       1069:g1       1070:g1       1071:g1      
  r value     1.000e+15      10.0000       10.0000       10.0000 



 subckt        xi22.xsa      xi22.xsa      xi22.xsa      xi22.xsa
 element  1072:g1       1073:g1       1074:g1       1075:g1      
  r value     1.000e+15     1.000e+15      10.0000      1.000e+15



 subckt        xi22.xsa      xi22.xsa      xi22.xsa      xi22.xsa
 element  1076:g1       1077:g1       1078:g1       1079:g1      
  r value     1.000e+15      10.0000       10.0000      1.000e+15



 subckt        xi22.xsa      xi22.xsa      xi22.xsa      xi22.xsa
 element  1080:g1       1081:g1       1082:g1       1083:g1      
  r value     1.000e+15      10.0000      1.000e+15      10.0000 



 subckt        xi22.xsa      xi22.xsa      xi22.xsa      xi22.xsa
 element  1084:g1       1085:g1       1086:g1       1087:g1      
  r value     1.000e+15      10.0000       10.0000       10.0000 



 subckt        xi22.xsa      xi22.xsa      xi22.xsa      xi22.xsa
 element  1088:g1       1089:g1       1090:g1       1091:g1      
  r value     1.000e+15     1.000e+15      10.0000      1.000e+15



 subckt        xi22.xsa      xi22.xsa      xi22.xsa      xi22.xsa
 element  1092:g1       1093:g1       1094:g1       1095:g1      
  r value     1.000e+15      10.0000       10.0000      1.000e+15



 subckt        xi22.xsa      xi22.xsa      xi22.xsa      xi22.xsa
 element  1096:g1       1097:g1       1098:g1       1099:g1      
  r value     1.000e+15      10.0000      1.000e+15      10.0000 



 subckt        xi22.xsa      xi22.xsa      xi22.xsa      xi22.xsa
 element  1100:g1       1101:g1       1102:g1       1103:g1      
  r value     1.000e+15      10.0000       10.0000       10.0000 



 subckt        xi22.xsa      xi22.xsa      xi22.xsa      xi22.xsa
 element  1104:g1       1105:g1       1106:g1       1107:g1      
  r value     1.000e+15     1.000e+15      10.0000      1.000e+15



 subckt        xi22.xsa      xi22.xsa      xi22.xsa      xi22.xsa
 element  1108:g1       1109:g1       1110:g1       1111:g1      
  r value     1.000e+15      10.0000       10.0000      1.000e+15



 subckt        xi22.xsa      xi22.xsa      xi22.xsa      xi22.xsa
 element  1112:g1       1113:g1       1114:g1       1115:g1      
  r value     1.000e+15      10.0000      1.000e+15      10.0000 



 subckt        xi22.xsa      xi22.xsa      xi22.xsa      xi22.xsa
 element  1116:g1       1117:g1       1118:g1       1119:g1      
  r value     1.000e+15      10.0000       10.0000       10.0000 



 subckt        xi22.xsa      xi22.xsa      xi22.xsa      xi22.xsa
 element  1120:g1       1121:g1       1122:g1       1123:g1      
  r value     1.000e+15     1.000e+15      10.0000      1.000e+15



 subckt        xi22.xsa      xi22.xsa      xi22.xsa      xi22.xsa
 element  1124:g1       1125:g1       1126:g1       1127:g1      
  r value     1.000e+15      10.0000       10.0000      1.000e+15



 subckt        xi22.xsa      xi22.xsa      xi22.xsa      xi22.xsa
 element  1128:g1       1129:g1       1130:g1       1131:g1      
  r value     1.000e+15      10.0000      1.000e+15      10.0000 



 subckt        xi22.xsa      xi22.xsa      xi22.xsa      xi22.xsa
 element  1132:g1       1133:g1       1134:g1       1135:g1      
  r value     1.000e+15      10.0000       10.0000       10.0000 



 subckt        xi22.xsa      xi22.xsa      xi22.xsa      xi22.xsa
 element  1136:g1       1137:g1       1138:g1       1139:g1      
  r value     1.000e+15     1.000e+15      10.0000      1.000e+15



 subckt        xi22.xsa      xi22.xsa      xi22.xsa      xi22.xsa
 element  1140:g1       1141:g1       1142:g1       1143:g1      
  r value     1.000e+15      10.0000       10.0000      1.000e+15



 subckt        xi22.xsa      xi22.xsa      xi22.xsa      xi22.xsa
 element  1144:g1       1145:g1       1146:g1       1147:g1      
  r value     1.000e+15      10.0000      1.000e+15      10.0000 



 subckt        xi22.xsa      xi22.xsa      xi22.xsa      xi22.xsa
 element  1148:g1       1149:g1       1150:g1       1151:g1      
  r value     1.000e+15      10.0000       10.0000       10.0000 



 subckt        xi22.xsa      xi22.xsa      xi22.xsa      xi22.xsa
 element  1152:g1       1153:g1       1154:g1       1155:g1      
  r value     1.000e+15     1.000e+15      10.0000      1.000e+15



 subckt        xi22.xsa      xi22.xsa      xi22.xsa      xi22.xsa
 element  1156:g1       1157:g1       1158:g1       1159:g1      
  r value     1.000e+15      10.0000       10.0000      1.000e+15



 subckt        xi22.xsa      xi22.xsa      xi22.xsa      xi22.xsa
 element  1160:g1       1161:g1       1162:g1       1163:g1      
  r value     1.000e+15      10.0000      1.000e+15      10.0000 



 subckt        xi22.xsa      xi22.xsa      xi22.xsa      xi22.xsa
 element  1164:g1       1165:g1       1166:g1       1167:g1      
  r value     1.000e+15      10.0000       10.0000       10.0000 



 subckt        xi22.xsa      xi22.xsa      xi22.xsa      xi22.xsa
 element  1168:g1       1169:g1       1170:g1       1171:g1      
  r value     1.000e+15     1.000e+15      10.0000      1.000e+15



 subckt        xi22.xsa      xi22.xsa      xi22.xsa      xi22.xsa
 element  1172:g1       1173:g1       1174:g1       1175:g1      
  r value     1.000e+15      10.0000       10.0000      1.000e+15



 subckt        xi22.xsa      xi22.xsa      xi22.xsa      xi22.xsa
 element  1176:g1       1177:g1       1178:g1       1179:g1      
  r value     1.000e+15      10.0000      1.000e+15      10.0000 



 subckt        xi22.xsa      xi22.xsa      xi22.xsa      xi22.xsa
 element  1180:g1       1181:g1       1182:g1       1183:g1      
  r value     1.000e+15      10.0000       10.0000       10.0000 



 subckt        xi22.xsa      xi22.xsa
 element  1184:g1       1185:g1      
  r value     1.000e+15     1.000e+15




 **** voltage-controlled voltage sources


 subckt                      xcmp    
 element     0:evcm1       3:evcvs   
  volts       500.0000m       1.0842f
  current      -9.0010p    -1.608e-27




          ***** job concluded
 ******  
 * idc_mod simulation

 ****** job statistics summary tnom=  25.000 temp=  60.000 ******
  
 ******  Machine Information  ******
 CPU:
 model name	: Intel(R) Xeon(R) Silver 4110 CPU @ 2.10GHz
 cpu MHz	: 2100.000
  
 OS:
 Linux version 3.10.0-957.el7.x86_64 (mockbuild@kbuilder.bsys.centos.org) (gcc version 4.8.5 20150623 (Red Hat 4.8.5-36) (GCC) ) #1 SMP Thu Nov 8 23:39:32 UTC 2018


  ******  HSPICE Threads Information  ******

  Command Line Threads Count :     1
  Available CPU Count        :    32
  Actual Threads Count       :     1


  ******  Circuit Statistics  ******
  # nodes       =     610 # elements   =    3999
  # resistors   =    1957 # capacitors =    1126 # inductors   =       0
  # mutual_inds =       0 # vccs       =     902 # vcvs        =       2
  # cccs        =       0 # ccvs       =       0 # volt_srcs   =      12
  # curr_srcs   =       0 # diodes     =       0 # bjts        =       0
  # jfets       =       0 # mosfets    =       0 # U elements  =       0
  # T elements  =       0 # W elements =       0 # B elements  =       0
  # S elements  =       0 # P elements =       0 # va device   =       0
  # vector_srcs =       0 # N elements =       0


  ******  Runtime Statistics (seconds)  ******

  analysis           time    # points   tot. iter  conv.iter
  op point           0.10           1          11
  transient       2118.05         101     3454326     1402751 rev=     84842
  readin             0.02
  errchk             0.08
  setup              0.02
  output             0.00


           peak memory used        327.42 megabytes
           total cpu time         2118.23 seconds
           total elapsed time     2458.88 seconds
           job started at     16:32:15 10/01/2019
           job ended   at     17:13:14 10/01/2019



>info:         ***** hspice job concluded
 lic: Release hspice token(s) 
 lic: total license checkout elapse time:        0.44(s)
