Using: /usr/cad/synopsys/hspice/cur/hspice/linux64/hspice bhv2.sp
 ****** HSPICE -- O-2018.09 linux64 (Aug 26 2018) ******                        
  Copyright (c) 1986 - 2019 by Synopsys, Inc. All Rights Reserved.              
  This software and the associated documentation are proprietary
  to Synopsys, Inc. This software may only be used in accordance
  with the terms and conditions of a written license agreement with
  Synopsys, Inc. All other use, reproduction, or distribution of
  this software is strictly prohibited.
  Input File: bhv2.sp                                                           
  Command line options: /usr/cad/synopsys/hspice/cur/hspice/linux64/hspice bhv2.sp
 lic:  
 lic: FLEXlm: SDK_11.6.9.6 
 lic: USER:   ychuang              HOSTNAME: adc 
 lic: HOSTID: "b026281535a3"       PID:      37560 
 lic: Using FLEXlm license file: 
 lic: 26585@lsnctu 
 lic: Checkout 1 hspice 
 lic: License/Maintenance for hspice will expire on 14-may-2022/2018.09 
 lic: 188(in_use)/190(total) FLOATING license(s) on SERVER 26585@lsnctu 
 lic:   

 **warning** RUNLVL=0 option detected. RUNLVL=0 is automatically switched to RUNLVL=5 from Release H-2013.03-SP1. RUNLVL=0 is a legacy setting with poor runtime performance.


1****** HSPICE -- O-2018.09 linux64 (Aug 26 2018) ******                        
 ******  
 * idc_mod simulation

 ****** circuit name directory
 circuit number to circuit name directory
   number circuitname                     definition         multiplier
        0 main circuit
        1 xi24.                           vcvs_cmp           1.00 
        2 xi22.                           sa_logic_8bit      1.00 
        3 xc_array_n.                     sa_8bit_c_array_with_dac_two_stage
                                                                 1.00 
        4 xc_array_p.                     sa_8bit_c_array_with_dac_two_stage
                                                                 1.00 
        5 xdffout_7.                      dff_set_rst_schematic
                                                                 1.00 
        6 xdffout_6.                      dff_set_rst_schematic
                                                                 1.00 
        7 xdffout_5.                      dff_set_rst_schematic
                                                                 1.00 
        8 xdffout_4.                      dff_set_rst_schematic
                                                                 1.00 
        9 xdffout_3.                      dff_set_rst_schematic
                                                                 1.00 
       10 xdffout_2.                      dff_set_rst_schematic
                                                                 1.00 
       11 xdffout_1.                      dff_set_rst_schematic
                                                                 1.00 
       12 xdffout_0.                      dff_set_rst_schematic
                                                                 1.00 
       13 xi7.                            nand2_bhv          1.00 
       14 xi8.                            inv_bhv            1.00 
       15 xi6.                            inv_bhv            1.00 
       16 xi5.                            inv_bhv            1.00 
       17 xcmplatch.                      dlatch             1.00 
       18 xi22.xrsh00.                    dff_set_rst        1.00 
       19 xi22.xdata3.                    dff_set_rst        1.00 
       20 xi22.xdata2.                    dff_set_rst        1.00 
       21 xi22.xdata1.                    dff_set_rst        1.00 
       22 xi22.xdata00.                   dff_set_rst        1.00 
       23 xi22.xdata0.                    dff_set_rst        1.00 
       24 xi22.xdata5.                    dff_set_rst        1.00 
       25 xi22.xrsh0.                     dff_set_rst        1.00 
       26 xi22.xrsh3.                     dff_set_rst        1.00 
       27 xi22.xrsh2.                     dff_set_rst        1.00 
       28 xi22.xrsh1.                     dff_set_rst        1.00 
       29 xi22.xrsh4.                     dff_set_rst        1.00 
       30 xi22.xdata7.                    dff_set_rst        1.00 
       31 xi22.xrsh5.                     dff_set_rst        1.00 
       32 xi22.xdata6.                    dff_set_rst        1.00 
       33 xi22.xdata4.                    dff_set_rst        1.00 
       34 xi22.xrsh6.                     dff_set_rst        1.00 
       35 xi22.xrsh7.                     dff_set_rst        1.00 
       36 xc_array_n.xsa_dac.             sa_dac_8bit        1.00 
       37 xc_array_n.xi2.                 tgb                1.00 
       38 xc_array_p.xsa_dac.             sa_dac_8bit        1.00 
       39 xc_array_p.xi2.                 tgb                1.00 
       40 xdffout_7.xi1.                  inv_bhv            1.00 
       41 xdffout_7.xi40.                 tgb                1.00 
       42 xdffout_7.xi34.                 tgb                1.00 
       43 xdffout_7.xi41.                 tgb                1.00 
       44 xdffout_7.xsw1.                 tgb                1.00 
       45 xdffout_7.xi42.                 nor2_bhv           1.00 
       46 xdffout_7.xi43.                 nor2_bhv           1.00 
       47 xdffout_7.xi31.                 nor2_bhv           1.00 
       48 xdffout_7.xi37.                 nor2_bhv           1.00 
       49 xdffout_6.xi1.                  inv_bhv            1.00 
       50 xdffout_6.xi40.                 tgb                1.00 
       51 xdffout_6.xi34.                 tgb                1.00 
       52 xdffout_6.xi41.                 tgb                1.00 
       53 xdffout_6.xsw1.                 tgb                1.00 
       54 xdffout_6.xi42.                 nor2_bhv           1.00 
       55 xdffout_6.xi43.                 nor2_bhv           1.00 
       56 xdffout_6.xi31.                 nor2_bhv           1.00 
       57 xdffout_6.xi37.                 nor2_bhv           1.00 
       58 xdffout_5.xi1.                  inv_bhv            1.00 
       59 xdffout_5.xi40.                 tgb                1.00 
       60 xdffout_5.xi34.                 tgb                1.00 
       61 xdffout_5.xi41.                 tgb                1.00 
       62 xdffout_5.xsw1.                 tgb                1.00 
       63 xdffout_5.xi42.                 nor2_bhv           1.00 
       64 xdffout_5.xi43.                 nor2_bhv           1.00 
       65 xdffout_5.xi31.                 nor2_bhv           1.00 
       66 xdffout_5.xi37.                 nor2_bhv           1.00 
       67 xdffout_4.xi1.                  inv_bhv            1.00 
       68 xdffout_4.xi40.                 tgb                1.00 
       69 xdffout_4.xi34.                 tgb                1.00 
       70 xdffout_4.xi41.                 tgb                1.00 
       71 xdffout_4.xsw1.                 tgb                1.00 
       72 xdffout_4.xi42.                 nor2_bhv           1.00 
       73 xdffout_4.xi43.                 nor2_bhv           1.00 
       74 xdffout_4.xi31.                 nor2_bhv           1.00 
       75 xdffout_4.xi37.                 nor2_bhv           1.00 
       76 xdffout_3.xi1.                  inv_bhv            1.00 
       77 xdffout_3.xi40.                 tgb                1.00 
       78 xdffout_3.xi34.                 tgb                1.00 
       79 xdffout_3.xi41.                 tgb                1.00 
       80 xdffout_3.xsw1.                 tgb                1.00 
       81 xdffout_3.xi42.                 nor2_bhv           1.00 
       82 xdffout_3.xi43.                 nor2_bhv           1.00 
       83 xdffout_3.xi31.                 nor2_bhv           1.00 
       84 xdffout_3.xi37.                 nor2_bhv           1.00 
       85 xdffout_2.xi1.                  inv_bhv            1.00 
       86 xdffout_2.xi40.                 tgb                1.00 
       87 xdffout_2.xi34.                 tgb                1.00 
       88 xdffout_2.xi41.                 tgb                1.00 
       89 xdffout_2.xsw1.                 tgb                1.00 
       90 xdffout_2.xi42.                 nor2_bhv           1.00 
       91 xdffout_2.xi43.                 nor2_bhv           1.00 
       92 xdffout_2.xi31.                 nor2_bhv           1.00 
       93 xdffout_2.xi37.                 nor2_bhv           1.00 
       94 xdffout_1.xi1.                  inv_bhv            1.00 
       95 xdffout_1.xi40.                 tgb                1.00 
       96 xdffout_1.xi34.                 tgb                1.00 
       97 xdffout_1.xi41.                 tgb                1.00 
       98 xdffout_1.xsw1.                 tgb                1.00 
       99 xdffout_1.xi42.                 nor2_bhv           1.00 
      100 xdffout_1.xi43.                 nor2_bhv           1.00 
      101 xdffout_1.xi31.                 nor2_bhv           1.00 
      102 xdffout_1.xi37.                 nor2_bhv           1.00 
      103 xdffout_0.xi1.                  inv_bhv            1.00 
      104 xdffout_0.xi40.                 tgb                1.00 
      105 xdffout_0.xi34.                 tgb                1.00 
      106 xdffout_0.xi41.                 tgb                1.00 
      107 xdffout_0.xsw1.                 tgb                1.00 
      108 xdffout_0.xi42.                 nor2_bhv           1.00 
      109 xdffout_0.xi43.                 nor2_bhv           1.00 
      110 xdffout_0.xi31.                 nor2_bhv           1.00 
      111 xdffout_0.xi37.                 nor2_bhv           1.00 
      112 xi7.xn1.                        nmos_b             1.00 
      113 xi7.xi9.                        nmos_b             1.00 
      114 xi7.xp1.                        pmos_b             1.00 
      115 xi7.xi10.                       pmos_b             1.00 
      116 xi8.xp1.                        pmos_b             1.00 
      117 xi8.xn1.                        nmos_b             1.00 
      118 xi6.xp1.                        pmos_b             1.00 
      119 xi6.xn1.                        nmos_b             1.00 
      120 xi5.xp1.                        pmos_b             1.00 
      121 xi5.xn1.                        nmos_b             1.00 
      122 xcmplatch.xi2.                  inv_bhv            1.00 
      123 xcmplatch.xi1.                  inv_bhv            1.00 
      124 xcmplatch.xi29.                 tgb                1.00 
      125 xcmplatch.xsw1.                 tgb                1.00 
      126 xi22.xrsh00.xi1.                inv_bhv            1.00 
      127 xi22.xrsh00.xi40.               tgb                1.00 
      128 xi22.xrsh00.xi34.               tgb                1.00 
      129 xi22.xrsh00.xi41.               tgb                1.00 
      130 xi22.xrsh00.xsw1.               tgb                1.00 
      131 xi22.xrsh00.xi42.               nor2_bhv           1.00 
      132 xi22.xrsh00.xi43.               nor2_bhv           1.00 
      133 xi22.xrsh00.xi31.               nor2_bhv           1.00 
      134 xi22.xrsh00.xi37.               nor2_bhv           1.00 
      135 xi22.xdata3.xi1.                inv_bhv            1.00 
      136 xi22.xdata3.xi40.               tgb                1.00 
      137 xi22.xdata3.xi34.               tgb                1.00 
      138 xi22.xdata3.xi41.               tgb                1.00 
      139 xi22.xdata3.xsw1.               tgb                1.00 
      140 xi22.xdata3.xi42.               nor2_bhv           1.00 
      141 xi22.xdata3.xi43.               nor2_bhv           1.00 
      142 xi22.xdata3.xi31.               nor2_bhv           1.00 
      143 xi22.xdata3.xi37.               nor2_bhv           1.00 
      144 xi22.xdata2.xi1.                inv_bhv            1.00 
      145 xi22.xdata2.xi40.               tgb                1.00 
      146 xi22.xdata2.xi34.               tgb                1.00 
      147 xi22.xdata2.xi41.               tgb                1.00 
      148 xi22.xdata2.xsw1.               tgb                1.00 
      149 xi22.xdata2.xi42.               nor2_bhv           1.00 
      150 xi22.xdata2.xi43.               nor2_bhv           1.00 
      151 xi22.xdata2.xi31.               nor2_bhv           1.00 
      152 xi22.xdata2.xi37.               nor2_bhv           1.00 
      153 xi22.xdata1.xi1.                inv_bhv            1.00 
      154 xi22.xdata1.xi40.               tgb                1.00 
      155 xi22.xdata1.xi34.               tgb                1.00 
      156 xi22.xdata1.xi41.               tgb                1.00 
      157 xi22.xdata1.xsw1.               tgb                1.00 
      158 xi22.xdata1.xi42.               nor2_bhv           1.00 
      159 xi22.xdata1.xi43.               nor2_bhv           1.00 
      160 xi22.xdata1.xi31.               nor2_bhv           1.00 
      161 xi22.xdata1.xi37.               nor2_bhv           1.00 
      162 xi22.xdata00.xi1.               inv_bhv            1.00 
      163 xi22.xdata00.xi40.              tgb                1.00 
      164 xi22.xdata00.xi34.              tgb                1.00 
      165 xi22.xdata00.xi41.              tgb                1.00 
      166 xi22.xdata00.xsw1.              tgb                1.00 
      167 xi22.xdata00.xi42.              nor2_bhv           1.00 
      168 xi22.xdata00.xi43.              nor2_bhv           1.00 
      169 xi22.xdata00.xi31.              nor2_bhv           1.00 
      170 xi22.xdata00.xi37.              nor2_bhv           1.00 
      171 xi22.xdata0.xi1.                inv_bhv            1.00 
      172 xi22.xdata0.xi40.               tgb                1.00 
      173 xi22.xdata0.xi34.               tgb                1.00 
      174 xi22.xdata0.xi41.               tgb                1.00 
      175 xi22.xdata0.xsw1.               tgb                1.00 
      176 xi22.xdata0.xi42.               nor2_bhv           1.00 
      177 xi22.xdata0.xi43.               nor2_bhv           1.00 
      178 xi22.xdata0.xi31.               nor2_bhv           1.00 
      179 xi22.xdata0.xi37.               nor2_bhv           1.00 
      180 xi22.xdata5.xi1.                inv_bhv            1.00 
      181 xi22.xdata5.xi40.               tgb                1.00 
      182 xi22.xdata5.xi34.               tgb                1.00 
      183 xi22.xdata5.xi41.               tgb                1.00 
      184 xi22.xdata5.xsw1.               tgb                1.00 
      185 xi22.xdata5.xi42.               nor2_bhv           1.00 
      186 xi22.xdata5.xi43.               nor2_bhv           1.00 
      187 xi22.xdata5.xi31.               nor2_bhv           1.00 
      188 xi22.xdata5.xi37.               nor2_bhv           1.00 
      189 xi22.xrsh0.xi1.                 inv_bhv            1.00 
      190 xi22.xrsh0.xi40.                tgb                1.00 
      191 xi22.xrsh0.xi34.                tgb                1.00 
      192 xi22.xrsh0.xi41.                tgb                1.00 
      193 xi22.xrsh0.xsw1.                tgb                1.00 
      194 xi22.xrsh0.xi42.                nor2_bhv           1.00 
      195 xi22.xrsh0.xi43.                nor2_bhv           1.00 
      196 xi22.xrsh0.xi31.                nor2_bhv           1.00 
      197 xi22.xrsh0.xi37.                nor2_bhv           1.00 
      198 xi22.xrsh3.xi1.                 inv_bhv            1.00 
      199 xi22.xrsh3.xi40.                tgb                1.00 
      200 xi22.xrsh3.xi34.                tgb                1.00 
      201 xi22.xrsh3.xi41.                tgb                1.00 
      202 xi22.xrsh3.xsw1.                tgb                1.00 
      203 xi22.xrsh3.xi42.                nor2_bhv           1.00 
      204 xi22.xrsh3.xi43.                nor2_bhv           1.00 
      205 xi22.xrsh3.xi31.                nor2_bhv           1.00 
      206 xi22.xrsh3.xi37.                nor2_bhv           1.00 
      207 xi22.xrsh2.xi1.                 inv_bhv            1.00 
      208 xi22.xrsh2.xi40.                tgb                1.00 
      209 xi22.xrsh2.xi34.                tgb                1.00 
      210 xi22.xrsh2.xi41.                tgb                1.00 
      211 xi22.xrsh2.xsw1.                tgb                1.00 
      212 xi22.xrsh2.xi42.                nor2_bhv           1.00 
      213 xi22.xrsh2.xi43.                nor2_bhv           1.00 
      214 xi22.xrsh2.xi31.                nor2_bhv           1.00 
      215 xi22.xrsh2.xi37.                nor2_bhv           1.00 
      216 xi22.xrsh1.xi1.                 inv_bhv            1.00 
      217 xi22.xrsh1.xi40.                tgb                1.00 
      218 xi22.xrsh1.xi34.                tgb                1.00 
      219 xi22.xrsh1.xi41.                tgb                1.00 
      220 xi22.xrsh1.xsw1.                tgb                1.00 
      221 xi22.xrsh1.xi42.                nor2_bhv           1.00 
      222 xi22.xrsh1.xi43.                nor2_bhv           1.00 
      223 xi22.xrsh1.xi31.                nor2_bhv           1.00 
      224 xi22.xrsh1.xi37.                nor2_bhv           1.00 
      225 xi22.xrsh4.xi1.                 inv_bhv            1.00 
      226 xi22.xrsh4.xi40.                tgb                1.00 
      227 xi22.xrsh4.xi34.                tgb                1.00 
      228 xi22.xrsh4.xi41.                tgb                1.00 
      229 xi22.xrsh4.xsw1.                tgb                1.00 
      230 xi22.xrsh4.xi42.                nor2_bhv           1.00 
      231 xi22.xrsh4.xi43.                nor2_bhv           1.00 
      232 xi22.xrsh4.xi31.                nor2_bhv           1.00 
      233 xi22.xrsh4.xi37.                nor2_bhv           1.00 
      234 xi22.xdata7.xi1.                inv_bhv            1.00 
      235 xi22.xdata7.xi40.               tgb                1.00 
      236 xi22.xdata7.xi34.               tgb                1.00 
      237 xi22.xdata7.xi41.               tgb                1.00 
      238 xi22.xdata7.xsw1.               tgb                1.00 
      239 xi22.xdata7.xi42.               nor2_bhv           1.00 
      240 xi22.xdata7.xi43.               nor2_bhv           1.00 
      241 xi22.xdata7.xi31.               nor2_bhv           1.00 
      242 xi22.xdata7.xi37.               nor2_bhv           1.00 
      243 xi22.xrsh5.xi1.                 inv_bhv            1.00 
      244 xi22.xrsh5.xi40.                tgb                1.00 
      245 xi22.xrsh5.xi34.                tgb                1.00 
      246 xi22.xrsh5.xi41.                tgb                1.00 
      247 xi22.xrsh5.xsw1.                tgb                1.00 
      248 xi22.xrsh5.xi42.                nor2_bhv           1.00 
      249 xi22.xrsh5.xi43.                nor2_bhv           1.00 
      250 xi22.xrsh5.xi31.                nor2_bhv           1.00 
      251 xi22.xrsh5.xi37.                nor2_bhv           1.00 
      252 xi22.xdata6.xi1.                inv_bhv            1.00 
      253 xi22.xdata6.xi40.               tgb                1.00 
      254 xi22.xdata6.xi34.               tgb                1.00 
      255 xi22.xdata6.xi41.               tgb                1.00 
      256 xi22.xdata6.xsw1.               tgb                1.00 
      257 xi22.xdata6.xi42.               nor2_bhv           1.00 
      258 xi22.xdata6.xi43.               nor2_bhv           1.00 
      259 xi22.xdata6.xi31.               nor2_bhv           1.00 
      260 xi22.xdata6.xi37.               nor2_bhv           1.00 
      261 xi22.xdata4.xi1.                inv_bhv            1.00 
      262 xi22.xdata4.xi40.               tgb                1.00 
      263 xi22.xdata4.xi34.               tgb                1.00 
      264 xi22.xdata4.xi41.               tgb                1.00 
      265 xi22.xdata4.xsw1.               tgb                1.00 
      266 xi22.xdata4.xi42.               nor2_bhv           1.00 
      267 xi22.xdata4.xi43.               nor2_bhv           1.00 
      268 xi22.xdata4.xi31.               nor2_bhv           1.00 
      269 xi22.xdata4.xi37.               nor2_bhv           1.00 
      270 xi22.xrsh6.xi1.                 inv_bhv            1.00 
      271 xi22.xrsh6.xi40.                tgb                1.00 
      272 xi22.xrsh6.xi34.                tgb                1.00 
      273 xi22.xrsh6.xi41.                tgb                1.00 
      274 xi22.xrsh6.xsw1.                tgb                1.00 
      275 xi22.xrsh6.xi42.                nor2_bhv           1.00 
      276 xi22.xrsh6.xi43.                nor2_bhv           1.00 
      277 xi22.xrsh6.xi31.                nor2_bhv           1.00 
      278 xi22.xrsh6.xi37.                nor2_bhv           1.00 
      279 xi22.xrsh7.xi1.                 inv_bhv            1.00 
      280 xi22.xrsh7.xi40.                tgb                1.00 
      281 xi22.xrsh7.xi34.                tgb                1.00 
      282 xi22.xrsh7.xi41.                tgb                1.00 
      283 xi22.xrsh7.xsw1.                tgb                1.00 
      284 xi22.xrsh7.xi42.                nor2_bhv           1.00 
      285 xi22.xrsh7.xi43.                nor2_bhv           1.00 
      286 xi22.xrsh7.xi31.                nor2_bhv           1.00 
      287 xi22.xrsh7.xi37.                nor2_bhv           1.00 
      288 xc_array_n.xsa_dac.xswdac_0.    dac_sw             1.00 
      289 xc_array_n.xsa_dac.xswdac_1.    dac_sw             1.00 
      290 xc_array_n.xsa_dac.xswdac_2.    dac_sw             1.00 
      291 xc_array_n.xsa_dac.xswdac_3.    dac_sw             1.00 
      292 xc_array_n.xsa_dac.xswdac_4.    dac_sw             1.00 
      293 xc_array_n.xsa_dac.xswdac_5.    dac_sw             1.00 
      294 xc_array_n.xsa_dac.xswdac_6.    dac_sw             1.00 
      295 xc_array_n.xsa_dac.xswdac_7.    dac_sw             1.00 
      296 xc_array_n.xsa_dac.xi1.         inv_bhv            1.00 
      297 xc_array_n.xsa_dac.xswdac00.    tgb                1.00 
      298 xc_array_n.xsa_dac.xswvin.      tgb                1.00 
      299 xc_array_p.xsa_dac.xswdac_0.    dac_sw             1.00 
      300 xc_array_p.xsa_dac.xswdac_1.    dac_sw             1.00 
      301 xc_array_p.xsa_dac.xswdac_2.    dac_sw             1.00 
      302 xc_array_p.xsa_dac.xswdac_3.    dac_sw             1.00 
      303 xc_array_p.xsa_dac.xswdac_4.    dac_sw             1.00 
      304 xc_array_p.xsa_dac.xswdac_5.    dac_sw             1.00 
      305 xc_array_p.xsa_dac.xswdac_6.    dac_sw             1.00 
      306 xc_array_p.xsa_dac.xswdac_7.    dac_sw             1.00 
      307 xc_array_p.xsa_dac.xi1.         inv_bhv            1.00 
      308 xc_array_p.xsa_dac.xswdac00.    tgb                1.00 
      309 xc_array_p.xsa_dac.xswvin.      tgb                1.00 
      310 xdffout_7.xi1.xp1.              pmos_b             1.00 
      311 xdffout_7.xi1.xn1.              nmos_b             1.00 
      312 xdffout_7.xi42.xn1.             nmos_b             1.00 
      313 xdffout_7.xi42.xi9.             nmos_b             1.00 
      314 xdffout_7.xi42.xp1.             pmos_b             1.00 
      315 xdffout_7.xi42.xi10.            pmos_b             1.00 
      316 xdffout_7.xi43.xn1.             nmos_b             1.00 
      317 xdffout_7.xi43.xi9.             nmos_b             1.00 
      318 xdffout_7.xi43.xp1.             pmos_b             1.00 
      319 xdffout_7.xi43.xi10.            pmos_b             1.00 
      320 xdffout_7.xi31.xn1.             nmos_b             1.00 
      321 xdffout_7.xi31.xi9.             nmos_b             1.00 
      322 xdffout_7.xi31.xp1.             pmos_b             1.00 
      323 xdffout_7.xi31.xi10.            pmos_b             1.00 
      324 xdffout_7.xi37.xn1.             nmos_b             1.00 
      325 xdffout_7.xi37.xi9.             nmos_b             1.00 
      326 xdffout_7.xi37.xp1.             pmos_b             1.00 
      327 xdffout_7.xi37.xi10.            pmos_b             1.00 
      328 xdffout_6.xi1.xp1.              pmos_b             1.00 
      329 xdffout_6.xi1.xn1.              nmos_b             1.00 
      330 xdffout_6.xi42.xn1.             nmos_b             1.00 
      331 xdffout_6.xi42.xi9.             nmos_b             1.00 
      332 xdffout_6.xi42.xp1.             pmos_b             1.00 
      333 xdffout_6.xi42.xi10.            pmos_b             1.00 
      334 xdffout_6.xi43.xn1.             nmos_b             1.00 
      335 xdffout_6.xi43.xi9.             nmos_b             1.00 
      336 xdffout_6.xi43.xp1.             pmos_b             1.00 
      337 xdffout_6.xi43.xi10.            pmos_b             1.00 
      338 xdffout_6.xi31.xn1.             nmos_b             1.00 
      339 xdffout_6.xi31.xi9.             nmos_b             1.00 
      340 xdffout_6.xi31.xp1.             pmos_b             1.00 
      341 xdffout_6.xi31.xi10.            pmos_b             1.00 
      342 xdffout_6.xi37.xn1.             nmos_b             1.00 
      343 xdffout_6.xi37.xi9.             nmos_b             1.00 
      344 xdffout_6.xi37.xp1.             pmos_b             1.00 
      345 xdffout_6.xi37.xi10.            pmos_b             1.00 
      346 xdffout_5.xi1.xp1.              pmos_b             1.00 
      347 xdffout_5.xi1.xn1.              nmos_b             1.00 
      348 xdffout_5.xi42.xn1.             nmos_b             1.00 
      349 xdffout_5.xi42.xi9.             nmos_b             1.00 
      350 xdffout_5.xi42.xp1.             pmos_b             1.00 
      351 xdffout_5.xi42.xi10.            pmos_b             1.00 
      352 xdffout_5.xi43.xn1.             nmos_b             1.00 
      353 xdffout_5.xi43.xi9.             nmos_b             1.00 
      354 xdffout_5.xi43.xp1.             pmos_b             1.00 
      355 xdffout_5.xi43.xi10.            pmos_b             1.00 
      356 xdffout_5.xi31.xn1.             nmos_b             1.00 
      357 xdffout_5.xi31.xi9.             nmos_b             1.00 
      358 xdffout_5.xi31.xp1.             pmos_b             1.00 
      359 xdffout_5.xi31.xi10.            pmos_b             1.00 
      360 xdffout_5.xi37.xn1.             nmos_b             1.00 
      361 xdffout_5.xi37.xi9.             nmos_b             1.00 
      362 xdffout_5.xi37.xp1.             pmos_b             1.00 
      363 xdffout_5.xi37.xi10.            pmos_b             1.00 
      364 xdffout_4.xi1.xp1.              pmos_b             1.00 
      365 xdffout_4.xi1.xn1.              nmos_b             1.00 
      366 xdffout_4.xi42.xn1.             nmos_b             1.00 
      367 xdffout_4.xi42.xi9.             nmos_b             1.00 
      368 xdffout_4.xi42.xp1.             pmos_b             1.00 
      369 xdffout_4.xi42.xi10.            pmos_b             1.00 
      370 xdffout_4.xi43.xn1.             nmos_b             1.00 
      371 xdffout_4.xi43.xi9.             nmos_b             1.00 
      372 xdffout_4.xi43.xp1.             pmos_b             1.00 
      373 xdffout_4.xi43.xi10.            pmos_b             1.00 
      374 xdffout_4.xi31.xn1.             nmos_b             1.00 
      375 xdffout_4.xi31.xi9.             nmos_b             1.00 
      376 xdffout_4.xi31.xp1.             pmos_b             1.00 
      377 xdffout_4.xi31.xi10.            pmos_b             1.00 
      378 xdffout_4.xi37.xn1.             nmos_b             1.00 
      379 xdffout_4.xi37.xi9.             nmos_b             1.00 
      380 xdffout_4.xi37.xp1.             pmos_b             1.00 
      381 xdffout_4.xi37.xi10.            pmos_b             1.00 
      382 xdffout_3.xi1.xp1.              pmos_b             1.00 
      383 xdffout_3.xi1.xn1.              nmos_b             1.00 
      384 xdffout_3.xi42.xn1.             nmos_b             1.00 
      385 xdffout_3.xi42.xi9.             nmos_b             1.00 
      386 xdffout_3.xi42.xp1.             pmos_b             1.00 
      387 xdffout_3.xi42.xi10.            pmos_b             1.00 
      388 xdffout_3.xi43.xn1.             nmos_b             1.00 
      389 xdffout_3.xi43.xi9.             nmos_b             1.00 
      390 xdffout_3.xi43.xp1.             pmos_b             1.00 
      391 xdffout_3.xi43.xi10.            pmos_b             1.00 
      392 xdffout_3.xi31.xn1.             nmos_b             1.00 
      393 xdffout_3.xi31.xi9.             nmos_b             1.00 
      394 xdffout_3.xi31.xp1.             pmos_b             1.00 
      395 xdffout_3.xi31.xi10.            pmos_b             1.00 
      396 xdffout_3.xi37.xn1.             nmos_b             1.00 
      397 xdffout_3.xi37.xi9.             nmos_b             1.00 
      398 xdffout_3.xi37.xp1.             pmos_b             1.00 
      399 xdffout_3.xi37.xi10.            pmos_b             1.00 
      400 xdffout_2.xi1.xp1.              pmos_b             1.00 
      401 xdffout_2.xi1.xn1.              nmos_b             1.00 
      402 xdffout_2.xi42.xn1.             nmos_b             1.00 
      403 xdffout_2.xi42.xi9.             nmos_b             1.00 
      404 xdffout_2.xi42.xp1.             pmos_b             1.00 
      405 xdffout_2.xi42.xi10.            pmos_b             1.00 
      406 xdffout_2.xi43.xn1.             nmos_b             1.00 
      407 xdffout_2.xi43.xi9.             nmos_b             1.00 
      408 xdffout_2.xi43.xp1.             pmos_b             1.00 
      409 xdffout_2.xi43.xi10.            pmos_b             1.00 
      410 xdffout_2.xi31.xn1.             nmos_b             1.00 
      411 xdffout_2.xi31.xi9.             nmos_b             1.00 
      412 xdffout_2.xi31.xp1.             pmos_b             1.00 
      413 xdffout_2.xi31.xi10.            pmos_b             1.00 
      414 xdffout_2.xi37.xn1.             nmos_b             1.00 
      415 xdffout_2.xi37.xi9.             nmos_b             1.00 
      416 xdffout_2.xi37.xp1.             pmos_b             1.00 
      417 xdffout_2.xi37.xi10.            pmos_b             1.00 
      418 xdffout_1.xi1.xp1.              pmos_b             1.00 
      419 xdffout_1.xi1.xn1.              nmos_b             1.00 
      420 xdffout_1.xi42.xn1.             nmos_b             1.00 
      421 xdffout_1.xi42.xi9.             nmos_b             1.00 
      422 xdffout_1.xi42.xp1.             pmos_b             1.00 
      423 xdffout_1.xi42.xi10.            pmos_b             1.00 
      424 xdffout_1.xi43.xn1.             nmos_b             1.00 
      425 xdffout_1.xi43.xi9.             nmos_b             1.00 
      426 xdffout_1.xi43.xp1.             pmos_b             1.00 
      427 xdffout_1.xi43.xi10.            pmos_b             1.00 
      428 xdffout_1.xi31.xn1.             nmos_b             1.00 
      429 xdffout_1.xi31.xi9.             nmos_b             1.00 
      430 xdffout_1.xi31.xp1.             pmos_b             1.00 
      431 xdffout_1.xi31.xi10.            pmos_b             1.00 
      432 xdffout_1.xi37.xn1.             nmos_b             1.00 
      433 xdffout_1.xi37.xi9.             nmos_b             1.00 
      434 xdffout_1.xi37.xp1.             pmos_b             1.00 
      435 xdffout_1.xi37.xi10.            pmos_b             1.00 
      436 xdffout_0.xi1.xp1.              pmos_b             1.00 
      437 xdffout_0.xi1.xn1.              nmos_b             1.00 
      438 xdffout_0.xi42.xn1.             nmos_b             1.00 
      439 xdffout_0.xi42.xi9.             nmos_b             1.00 
      440 xdffout_0.xi42.xp1.             pmos_b             1.00 
      441 xdffout_0.xi42.xi10.            pmos_b             1.00 
      442 xdffout_0.xi43.xn1.             nmos_b             1.00 
      443 xdffout_0.xi43.xi9.             nmos_b             1.00 
      444 xdffout_0.xi43.xp1.             pmos_b             1.00 
      445 xdffout_0.xi43.xi10.            pmos_b             1.00 
      446 xdffout_0.xi31.xn1.             nmos_b             1.00 
      447 xdffout_0.xi31.xi9.             nmos_b             1.00 
      448 xdffout_0.xi31.xp1.             pmos_b             1.00 
      449 xdffout_0.xi31.xi10.            pmos_b             1.00 
      450 xdffout_0.xi37.xn1.             nmos_b             1.00 
      451 xdffout_0.xi37.xi9.             nmos_b             1.00 
      452 xdffout_0.xi37.xp1.             pmos_b             1.00 
      453 xdffout_0.xi37.xi10.            pmos_b             1.00 
      454 xcmplatch.xi2.xp1.              pmos_b             1.00 
      455 xcmplatch.xi2.xn1.              nmos_b             1.00 
      456 xcmplatch.xi1.xp1.              pmos_b             1.00 
      457 xcmplatch.xi1.xn1.              nmos_b             1.00 
      458 xi22.xrsh00.xi1.xp1.            pmos_b             1.00 
      459 xi22.xrsh00.xi1.xn1.            nmos_b             1.00 
      460 xi22.xrsh00.xi42.xn1.           nmos_b             1.00 
      461 xi22.xrsh00.xi42.xi9.           nmos_b             1.00 
      462 xi22.xrsh00.xi42.xp1.           pmos_b             1.00 
      463 xi22.xrsh00.xi42.xi10.          pmos_b             1.00 
      464 xi22.xrsh00.xi43.xn1.           nmos_b             1.00 
      465 xi22.xrsh00.xi43.xi9.           nmos_b             1.00 
      466 xi22.xrsh00.xi43.xp1.           pmos_b             1.00 
      467 xi22.xrsh00.xi43.xi10.          pmos_b             1.00 
      468 xi22.xrsh00.xi31.xn1.           nmos_b             1.00 
      469 xi22.xrsh00.xi31.xi9.           nmos_b             1.00 
      470 xi22.xrsh00.xi31.xp1.           pmos_b             1.00 
      471 xi22.xrsh00.xi31.xi10.          pmos_b             1.00 
      472 xi22.xrsh00.xi37.xn1.           nmos_b             1.00 
      473 xi22.xrsh00.xi37.xi9.           nmos_b             1.00 
      474 xi22.xrsh00.xi37.xp1.           pmos_b             1.00 
      475 xi22.xrsh00.xi37.xi10.          pmos_b             1.00 
      476 xi22.xdata3.xi1.xp1.            pmos_b             1.00 
      477 xi22.xdata3.xi1.xn1.            nmos_b             1.00 
      478 xi22.xdata3.xi42.xn1.           nmos_b             1.00 
      479 xi22.xdata3.xi42.xi9.           nmos_b             1.00 
      480 xi22.xdata3.xi42.xp1.           pmos_b             1.00 
      481 xi22.xdata3.xi42.xi10.          pmos_b             1.00 
      482 xi22.xdata3.xi43.xn1.           nmos_b             1.00 
      483 xi22.xdata3.xi43.xi9.           nmos_b             1.00 
      484 xi22.xdata3.xi43.xp1.           pmos_b             1.00 
      485 xi22.xdata3.xi43.xi10.          pmos_b             1.00 
      486 xi22.xdata3.xi31.xn1.           nmos_b             1.00 
      487 xi22.xdata3.xi31.xi9.           nmos_b             1.00 
      488 xi22.xdata3.xi31.xp1.           pmos_b             1.00 
      489 xi22.xdata3.xi31.xi10.          pmos_b             1.00 
      490 xi22.xdata3.xi37.xn1.           nmos_b             1.00 
      491 xi22.xdata3.xi37.xi9.           nmos_b             1.00 
      492 xi22.xdata3.xi37.xp1.           pmos_b             1.00 
      493 xi22.xdata3.xi37.xi10.          pmos_b             1.00 
      494 xi22.xdata2.xi1.xp1.            pmos_b             1.00 
      495 xi22.xdata2.xi1.xn1.            nmos_b             1.00 
      496 xi22.xdata2.xi42.xn1.           nmos_b             1.00 
      497 xi22.xdata2.xi42.xi9.           nmos_b             1.00 
      498 xi22.xdata2.xi42.xp1.           pmos_b             1.00 
      499 xi22.xdata2.xi42.xi10.          pmos_b             1.00 
      500 xi22.xdata2.xi43.xn1.           nmos_b             1.00 
      501 xi22.xdata2.xi43.xi9.           nmos_b             1.00 
      502 xi22.xdata2.xi43.xp1.           pmos_b             1.00 
      503 xi22.xdata2.xi43.xi10.          pmos_b             1.00 
      504 xi22.xdata2.xi31.xn1.           nmos_b             1.00 
      505 xi22.xdata2.xi31.xi9.           nmos_b             1.00 
      506 xi22.xdata2.xi31.xp1.           pmos_b             1.00 
      507 xi22.xdata2.xi31.xi10.          pmos_b             1.00 
      508 xi22.xdata2.xi37.xn1.           nmos_b             1.00 
      509 xi22.xdata2.xi37.xi9.           nmos_b             1.00 
      510 xi22.xdata2.xi37.xp1.           pmos_b             1.00 
      511 xi22.xdata2.xi37.xi10.          pmos_b             1.00 
      512 xi22.xdata1.xi1.xp1.            pmos_b             1.00 
      513 xi22.xdata1.xi1.xn1.            nmos_b             1.00 
      514 xi22.xdata1.xi42.xn1.           nmos_b             1.00 
      515 xi22.xdata1.xi42.xi9.           nmos_b             1.00 
      516 xi22.xdata1.xi42.xp1.           pmos_b             1.00 
      517 xi22.xdata1.xi42.xi10.          pmos_b             1.00 
      518 xi22.xdata1.xi43.xn1.           nmos_b             1.00 
      519 xi22.xdata1.xi43.xi9.           nmos_b             1.00 
      520 xi22.xdata1.xi43.xp1.           pmos_b             1.00 
      521 xi22.xdata1.xi43.xi10.          pmos_b             1.00 
      522 xi22.xdata1.xi31.xn1.           nmos_b             1.00 
      523 xi22.xdata1.xi31.xi9.           nmos_b             1.00 
      524 xi22.xdata1.xi31.xp1.           pmos_b             1.00 
      525 xi22.xdata1.xi31.xi10.          pmos_b             1.00 
      526 xi22.xdata1.xi37.xn1.           nmos_b             1.00 
      527 xi22.xdata1.xi37.xi9.           nmos_b             1.00 
      528 xi22.xdata1.xi37.xp1.           pmos_b             1.00 
      529 xi22.xdata1.xi37.xi10.          pmos_b             1.00 
      530 xi22.xdata00.xi1.xp1.           pmos_b             1.00 
      531 xi22.xdata00.xi1.xn1.           nmos_b             1.00 
      532 xi22.xdata00.xi42.xn1.          nmos_b             1.00 
      533 xi22.xdata00.xi42.xi9.          nmos_b             1.00 
      534 xi22.xdata00.xi42.xp1.          pmos_b             1.00 
      535 xi22.xdata00.xi42.xi10.         pmos_b             1.00 
      536 xi22.xdata00.xi43.xn1.          nmos_b             1.00 
      537 xi22.xdata00.xi43.xi9.          nmos_b             1.00 
      538 xi22.xdata00.xi43.xp1.          pmos_b             1.00 
      539 xi22.xdata00.xi43.xi10.         pmos_b             1.00 
      540 xi22.xdata00.xi31.xn1.          nmos_b             1.00 
      541 xi22.xdata00.xi31.xi9.          nmos_b             1.00 
      542 xi22.xdata00.xi31.xp1.          pmos_b             1.00 
      543 xi22.xdata00.xi31.xi10.         pmos_b             1.00 
      544 xi22.xdata00.xi37.xn1.          nmos_b             1.00 
      545 xi22.xdata00.xi37.xi9.          nmos_b             1.00 
      546 xi22.xdata00.xi37.xp1.          pmos_b             1.00 
      547 xi22.xdata00.xi37.xi10.         pmos_b             1.00 
      548 xi22.xdata0.xi1.xp1.            pmos_b             1.00 
      549 xi22.xdata0.xi1.xn1.            nmos_b             1.00 
      550 xi22.xdata0.xi42.xn1.           nmos_b             1.00 
      551 xi22.xdata0.xi42.xi9.           nmos_b             1.00 
      552 xi22.xdata0.xi42.xp1.           pmos_b             1.00 
      553 xi22.xdata0.xi42.xi10.          pmos_b             1.00 
      554 xi22.xdata0.xi43.xn1.           nmos_b             1.00 
      555 xi22.xdata0.xi43.xi9.           nmos_b             1.00 
      556 xi22.xdata0.xi43.xp1.           pmos_b             1.00 
      557 xi22.xdata0.xi43.xi10.          pmos_b             1.00 
      558 xi22.xdata0.xi31.xn1.           nmos_b             1.00 
      559 xi22.xdata0.xi31.xi9.           nmos_b             1.00 
      560 xi22.xdata0.xi31.xp1.           pmos_b             1.00 
      561 xi22.xdata0.xi31.xi10.          pmos_b             1.00 
      562 xi22.xdata0.xi37.xn1.           nmos_b             1.00 
      563 xi22.xdata0.xi37.xi9.           nmos_b             1.00 
      564 xi22.xdata0.xi37.xp1.           pmos_b             1.00 
      565 xi22.xdata0.xi37.xi10.          pmos_b             1.00 
      566 xi22.xdata5.xi1.xp1.            pmos_b             1.00 
      567 xi22.xdata5.xi1.xn1.            nmos_b             1.00 
      568 xi22.xdata5.xi42.xn1.           nmos_b             1.00 
      569 xi22.xdata5.xi42.xi9.           nmos_b             1.00 
      570 xi22.xdata5.xi42.xp1.           pmos_b             1.00 
      571 xi22.xdata5.xi42.xi10.          pmos_b             1.00 
      572 xi22.xdata5.xi43.xn1.           nmos_b             1.00 
      573 xi22.xdata5.xi43.xi9.           nmos_b             1.00 
      574 xi22.xdata5.xi43.xp1.           pmos_b             1.00 
      575 xi22.xdata5.xi43.xi10.          pmos_b             1.00 
      576 xi22.xdata5.xi31.xn1.           nmos_b             1.00 
      577 xi22.xdata5.xi31.xi9.           nmos_b             1.00 
      578 xi22.xdata5.xi31.xp1.           pmos_b             1.00 
      579 xi22.xdata5.xi31.xi10.          pmos_b             1.00 
      580 xi22.xdata5.xi37.xn1.           nmos_b             1.00 
      581 xi22.xdata5.xi37.xi9.           nmos_b             1.00 
      582 xi22.xdata5.xi37.xp1.           pmos_b             1.00 
      583 xi22.xdata5.xi37.xi10.          pmos_b             1.00 
      584 xi22.xrsh0.xi1.xp1.             pmos_b             1.00 
      585 xi22.xrsh0.xi1.xn1.             nmos_b             1.00 
      586 xi22.xrsh0.xi42.xn1.            nmos_b             1.00 
      587 xi22.xrsh0.xi42.xi9.            nmos_b             1.00 
      588 xi22.xrsh0.xi42.xp1.            pmos_b             1.00 
      589 xi22.xrsh0.xi42.xi10.           pmos_b             1.00 
      590 xi22.xrsh0.xi43.xn1.            nmos_b             1.00 
      591 xi22.xrsh0.xi43.xi9.            nmos_b             1.00 
      592 xi22.xrsh0.xi43.xp1.            pmos_b             1.00 
      593 xi22.xrsh0.xi43.xi10.           pmos_b             1.00 
      594 xi22.xrsh0.xi31.xn1.            nmos_b             1.00 
      595 xi22.xrsh0.xi31.xi9.            nmos_b             1.00 
      596 xi22.xrsh0.xi31.xp1.            pmos_b             1.00 
      597 xi22.xrsh0.xi31.xi10.           pmos_b             1.00 
      598 xi22.xrsh0.xi37.xn1.            nmos_b             1.00 
      599 xi22.xrsh0.xi37.xi9.            nmos_b             1.00 
      600 xi22.xrsh0.xi37.xp1.            pmos_b             1.00 
      601 xi22.xrsh0.xi37.xi10.           pmos_b             1.00 
      602 xi22.xrsh3.xi1.xp1.             pmos_b             1.00 
      603 xi22.xrsh3.xi1.xn1.             nmos_b             1.00 
      604 xi22.xrsh3.xi42.xn1.            nmos_b             1.00 
      605 xi22.xrsh3.xi42.xi9.            nmos_b             1.00 
      606 xi22.xrsh3.xi42.xp1.            pmos_b             1.00 
      607 xi22.xrsh3.xi42.xi10.           pmos_b             1.00 
      608 xi22.xrsh3.xi43.xn1.            nmos_b             1.00 
      609 xi22.xrsh3.xi43.xi9.            nmos_b             1.00 
      610 xi22.xrsh3.xi43.xp1.            pmos_b             1.00 
      611 xi22.xrsh3.xi43.xi10.           pmos_b             1.00 
      612 xi22.xrsh3.xi31.xn1.            nmos_b             1.00 
      613 xi22.xrsh3.xi31.xi9.            nmos_b             1.00 
      614 xi22.xrsh3.xi31.xp1.            pmos_b             1.00 
      615 xi22.xrsh3.xi31.xi10.           pmos_b             1.00 
      616 xi22.xrsh3.xi37.xn1.            nmos_b             1.00 
      617 xi22.xrsh3.xi37.xi9.            nmos_b             1.00 
      618 xi22.xrsh3.xi37.xp1.            pmos_b             1.00 
      619 xi22.xrsh3.xi37.xi10.           pmos_b             1.00 
      620 xi22.xrsh2.xi1.xp1.             pmos_b             1.00 
      621 xi22.xrsh2.xi1.xn1.             nmos_b             1.00 
      622 xi22.xrsh2.xi42.xn1.            nmos_b             1.00 
      623 xi22.xrsh2.xi42.xi9.            nmos_b             1.00 
      624 xi22.xrsh2.xi42.xp1.            pmos_b             1.00 
      625 xi22.xrsh2.xi42.xi10.           pmos_b             1.00 
      626 xi22.xrsh2.xi43.xn1.            nmos_b             1.00 
      627 xi22.xrsh2.xi43.xi9.            nmos_b             1.00 
      628 xi22.xrsh2.xi43.xp1.            pmos_b             1.00 
      629 xi22.xrsh2.xi43.xi10.           pmos_b             1.00 
      630 xi22.xrsh2.xi31.xn1.            nmos_b             1.00 
      631 xi22.xrsh2.xi31.xi9.            nmos_b             1.00 
      632 xi22.xrsh2.xi31.xp1.            pmos_b             1.00 
      633 xi22.xrsh2.xi31.xi10.           pmos_b             1.00 
      634 xi22.xrsh2.xi37.xn1.            nmos_b             1.00 
      635 xi22.xrsh2.xi37.xi9.            nmos_b             1.00 
      636 xi22.xrsh2.xi37.xp1.            pmos_b             1.00 
      637 xi22.xrsh2.xi37.xi10.           pmos_b             1.00 
      638 xi22.xrsh1.xi1.xp1.             pmos_b             1.00 
      639 xi22.xrsh1.xi1.xn1.             nmos_b             1.00 
      640 xi22.xrsh1.xi42.xn1.            nmos_b             1.00 
      641 xi22.xrsh1.xi42.xi9.            nmos_b             1.00 
      642 xi22.xrsh1.xi42.xp1.            pmos_b             1.00 
      643 xi22.xrsh1.xi42.xi10.           pmos_b             1.00 
      644 xi22.xrsh1.xi43.xn1.            nmos_b             1.00 
      645 xi22.xrsh1.xi43.xi9.            nmos_b             1.00 
      646 xi22.xrsh1.xi43.xp1.            pmos_b             1.00 
      647 xi22.xrsh1.xi43.xi10.           pmos_b             1.00 
      648 xi22.xrsh1.xi31.xn1.            nmos_b             1.00 
      649 xi22.xrsh1.xi31.xi9.            nmos_b             1.00 
      650 xi22.xrsh1.xi31.xp1.            pmos_b             1.00 
      651 xi22.xrsh1.xi31.xi10.           pmos_b             1.00 
      652 xi22.xrsh1.xi37.xn1.            nmos_b             1.00 
      653 xi22.xrsh1.xi37.xi9.            nmos_b             1.00 
      654 xi22.xrsh1.xi37.xp1.            pmos_b             1.00 
      655 xi22.xrsh1.xi37.xi10.           pmos_b             1.00 
      656 xi22.xrsh4.xi1.xp1.             pmos_b             1.00 
      657 xi22.xrsh4.xi1.xn1.             nmos_b             1.00 
      658 xi22.xrsh4.xi42.xn1.            nmos_b             1.00 
      659 xi22.xrsh4.xi42.xi9.            nmos_b             1.00 
      660 xi22.xrsh4.xi42.xp1.            pmos_b             1.00 
      661 xi22.xrsh4.xi42.xi10.           pmos_b             1.00 
      662 xi22.xrsh4.xi43.xn1.            nmos_b             1.00 
      663 xi22.xrsh4.xi43.xi9.            nmos_b             1.00 
      664 xi22.xrsh4.xi43.xp1.            pmos_b             1.00 
      665 xi22.xrsh4.xi43.xi10.           pmos_b             1.00 
      666 xi22.xrsh4.xi31.xn1.            nmos_b             1.00 
      667 xi22.xrsh4.xi31.xi9.            nmos_b             1.00 
      668 xi22.xrsh4.xi31.xp1.            pmos_b             1.00 
      669 xi22.xrsh4.xi31.xi10.           pmos_b             1.00 
      670 xi22.xrsh4.xi37.xn1.            nmos_b             1.00 
      671 xi22.xrsh4.xi37.xi9.            nmos_b             1.00 
      672 xi22.xrsh4.xi37.xp1.            pmos_b             1.00 
      673 xi22.xrsh4.xi37.xi10.           pmos_b             1.00 
      674 xi22.xdata7.xi1.xp1.            pmos_b             1.00 
      675 xi22.xdata7.xi1.xn1.            nmos_b             1.00 
      676 xi22.xdata7.xi42.xn1.           nmos_b             1.00 
      677 xi22.xdata7.xi42.xi9.           nmos_b             1.00 
      678 xi22.xdata7.xi42.xp1.           pmos_b             1.00 
      679 xi22.xdata7.xi42.xi10.          pmos_b             1.00 
      680 xi22.xdata7.xi43.xn1.           nmos_b             1.00 
      681 xi22.xdata7.xi43.xi9.           nmos_b             1.00 
      682 xi22.xdata7.xi43.xp1.           pmos_b             1.00 
      683 xi22.xdata7.xi43.xi10.          pmos_b             1.00 
      684 xi22.xdata7.xi31.xn1.           nmos_b             1.00 
      685 xi22.xdata7.xi31.xi9.           nmos_b             1.00 
      686 xi22.xdata7.xi31.xp1.           pmos_b             1.00 
      687 xi22.xdata7.xi31.xi10.          pmos_b             1.00 
      688 xi22.xdata7.xi37.xn1.           nmos_b             1.00 
      689 xi22.xdata7.xi37.xi9.           nmos_b             1.00 
      690 xi22.xdata7.xi37.xp1.           pmos_b             1.00 
      691 xi22.xdata7.xi37.xi10.          pmos_b             1.00 
      692 xi22.xrsh5.xi1.xp1.             pmos_b             1.00 
      693 xi22.xrsh5.xi1.xn1.             nmos_b             1.00 
      694 xi22.xrsh5.xi42.xn1.            nmos_b             1.00 
      695 xi22.xrsh5.xi42.xi9.            nmos_b             1.00 
      696 xi22.xrsh5.xi42.xp1.            pmos_b             1.00 
      697 xi22.xrsh5.xi42.xi10.           pmos_b             1.00 
      698 xi22.xrsh5.xi43.xn1.            nmos_b             1.00 
      699 xi22.xrsh5.xi43.xi9.            nmos_b             1.00 
      700 xi22.xrsh5.xi43.xp1.            pmos_b             1.00 
      701 xi22.xrsh5.xi43.xi10.           pmos_b             1.00 
      702 xi22.xrsh5.xi31.xn1.            nmos_b             1.00 
      703 xi22.xrsh5.xi31.xi9.            nmos_b             1.00 
      704 xi22.xrsh5.xi31.xp1.            pmos_b             1.00 
      705 xi22.xrsh5.xi31.xi10.           pmos_b             1.00 
      706 xi22.xrsh5.xi37.xn1.            nmos_b             1.00 
      707 xi22.xrsh5.xi37.xi9.            nmos_b             1.00 
      708 xi22.xrsh5.xi37.xp1.            pmos_b             1.00 
      709 xi22.xrsh5.xi37.xi10.           pmos_b             1.00 
      710 xi22.xdata6.xi1.xp1.            pmos_b             1.00 
      711 xi22.xdata6.xi1.xn1.            nmos_b             1.00 
      712 xi22.xdata6.xi42.xn1.           nmos_b             1.00 
      713 xi22.xdata6.xi42.xi9.           nmos_b             1.00 
      714 xi22.xdata6.xi42.xp1.           pmos_b             1.00 
      715 xi22.xdata6.xi42.xi10.          pmos_b             1.00 
      716 xi22.xdata6.xi43.xn1.           nmos_b             1.00 
      717 xi22.xdata6.xi43.xi9.           nmos_b             1.00 
      718 xi22.xdata6.xi43.xp1.           pmos_b             1.00 
      719 xi22.xdata6.xi43.xi10.          pmos_b             1.00 
      720 xi22.xdata6.xi31.xn1.           nmos_b             1.00 
      721 xi22.xdata6.xi31.xi9.           nmos_b             1.00 
      722 xi22.xdata6.xi31.xp1.           pmos_b             1.00 
      723 xi22.xdata6.xi31.xi10.          pmos_b             1.00 
      724 xi22.xdata6.xi37.xn1.           nmos_b             1.00 
      725 xi22.xdata6.xi37.xi9.           nmos_b             1.00 
      726 xi22.xdata6.xi37.xp1.           pmos_b             1.00 
      727 xi22.xdata6.xi37.xi10.          pmos_b             1.00 
      728 xi22.xdata4.xi1.xp1.            pmos_b             1.00 
      729 xi22.xdata4.xi1.xn1.            nmos_b             1.00 
      730 xi22.xdata4.xi42.xn1.           nmos_b             1.00 
      731 xi22.xdata4.xi42.xi9.           nmos_b             1.00 
      732 xi22.xdata4.xi42.xp1.           pmos_b             1.00 
      733 xi22.xdata4.xi42.xi10.          pmos_b             1.00 
      734 xi22.xdata4.xi43.xn1.           nmos_b             1.00 
      735 xi22.xdata4.xi43.xi9.           nmos_b             1.00 
      736 xi22.xdata4.xi43.xp1.           pmos_b             1.00 
      737 xi22.xdata4.xi43.xi10.          pmos_b             1.00 
      738 xi22.xdata4.xi31.xn1.           nmos_b             1.00 
      739 xi22.xdata4.xi31.xi9.           nmos_b             1.00 
      740 xi22.xdata4.xi31.xp1.           pmos_b             1.00 
      741 xi22.xdata4.xi31.xi10.          pmos_b             1.00 
      742 xi22.xdata4.xi37.xn1.           nmos_b             1.00 
      743 xi22.xdata4.xi37.xi9.           nmos_b             1.00 
      744 xi22.xdata4.xi37.xp1.           pmos_b             1.00 
      745 xi22.xdata4.xi37.xi10.          pmos_b             1.00 
      746 xi22.xrsh6.xi1.xp1.             pmos_b             1.00 
      747 xi22.xrsh6.xi1.xn1.             nmos_b             1.00 
      748 xi22.xrsh6.xi42.xn1.            nmos_b             1.00 
      749 xi22.xrsh6.xi42.xi9.            nmos_b             1.00 
      750 xi22.xrsh6.xi42.xp1.            pmos_b             1.00 
      751 xi22.xrsh6.xi42.xi10.           pmos_b             1.00 
      752 xi22.xrsh6.xi43.xn1.            nmos_b             1.00 
      753 xi22.xrsh6.xi43.xi9.            nmos_b             1.00 
      754 xi22.xrsh6.xi43.xp1.            pmos_b             1.00 
      755 xi22.xrsh6.xi43.xi10.           pmos_b             1.00 
      756 xi22.xrsh6.xi31.xn1.            nmos_b             1.00 
      757 xi22.xrsh6.xi31.xi9.            nmos_b             1.00 
      758 xi22.xrsh6.xi31.xp1.            pmos_b             1.00 
      759 xi22.xrsh6.xi31.xi10.           pmos_b             1.00 
      760 xi22.xrsh6.xi37.xn1.            nmos_b             1.00 
      761 xi22.xrsh6.xi37.xi9.            nmos_b             1.00 
      762 xi22.xrsh6.xi37.xp1.            pmos_b             1.00 
      763 xi22.xrsh6.xi37.xi10.           pmos_b             1.00 
      764 xi22.xrsh7.xi1.xp1.             pmos_b             1.00 
      765 xi22.xrsh7.xi1.xn1.             nmos_b             1.00 
      766 xi22.xrsh7.xi42.xn1.            nmos_b             1.00 
      767 xi22.xrsh7.xi42.xi9.            nmos_b             1.00 
      768 xi22.xrsh7.xi42.xp1.            pmos_b             1.00 
      769 xi22.xrsh7.xi42.xi10.           pmos_b             1.00 
      770 xi22.xrsh7.xi43.xn1.            nmos_b             1.00 
      771 xi22.xrsh7.xi43.xi9.            nmos_b             1.00 
      772 xi22.xrsh7.xi43.xp1.            pmos_b             1.00 
      773 xi22.xrsh7.xi43.xi10.           pmos_b             1.00 
      774 xi22.xrsh7.xi31.xn1.            nmos_b             1.00 
      775 xi22.xrsh7.xi31.xi9.            nmos_b             1.00 
      776 xi22.xrsh7.xi31.xp1.            pmos_b             1.00 
      777 xi22.xrsh7.xi31.xi10.           pmos_b             1.00 
      778 xi22.xrsh7.xi37.xn1.            nmos_b             1.00 
      779 xi22.xrsh7.xi37.xi9.            nmos_b             1.00 
      780 xi22.xrsh7.xi37.xp1.            pmos_b             1.00 
      781 xi22.xrsh7.xi37.xi10.           pmos_b             1.00 
      782 xc_array_n.xsa_dac.xswdac_0.xi7.
                                            inv_bhv            1.00 
      783 xc_array_n.xsa_dac.xswdac_0.xi3.
                                            inv_bhv            1.00 
      784 xc_array_n.xsa_dac.xswdac_0.xi20.
                                            inv_bhv            1.00 
      785 xc_array_n.xsa_dac.xswdac_0.xi1.
                                            inv_bhv            1.00 
      786 xc_array_n.xsa_dac.xswdac_0.xi2.
                                            nand2_bhv          1.00 
      787 xc_array_n.xsa_dac.xswdac_0.xi19.
                                            nand2_bhv          1.00 
      788 xc_array_n.xsa_dac.xswdac_0.xswp.
                                            tgb                1.00 
      789 xc_array_n.xsa_dac.xswdac_0.xswn.
                                            tgb                1.00 
      790 xc_array_n.xsa_dac.xswdac_0.xswin.
                                            tgb                1.00 
      791 xc_array_n.xsa_dac.xswdac_1.xi7.
                                            inv_bhv            1.00 
      792 xc_array_n.xsa_dac.xswdac_1.xi3.
                                            inv_bhv            1.00 
      793 xc_array_n.xsa_dac.xswdac_1.xi20.
                                            inv_bhv            1.00 
      794 xc_array_n.xsa_dac.xswdac_1.xi1.
                                            inv_bhv            1.00 
      795 xc_array_n.xsa_dac.xswdac_1.xi2.
                                            nand2_bhv          1.00 
      796 xc_array_n.xsa_dac.xswdac_1.xi19.
                                            nand2_bhv          1.00 
      797 xc_array_n.xsa_dac.xswdac_1.xswp.
                                            tgb                1.00 
      798 xc_array_n.xsa_dac.xswdac_1.xswn.
                                            tgb                1.00 
      799 xc_array_n.xsa_dac.xswdac_1.xswin.
                                            tgb                1.00 
      800 xc_array_n.xsa_dac.xswdac_2.xi7.
                                            inv_bhv            1.00 
      801 xc_array_n.xsa_dac.xswdac_2.xi3.
                                            inv_bhv            1.00 
      802 xc_array_n.xsa_dac.xswdac_2.xi20.
                                            inv_bhv            1.00 
      803 xc_array_n.xsa_dac.xswdac_2.xi1.
                                            inv_bhv            1.00 
      804 xc_array_n.xsa_dac.xswdac_2.xi2.
                                            nand2_bhv          1.00 
      805 xc_array_n.xsa_dac.xswdac_2.xi19.
                                            nand2_bhv          1.00 
      806 xc_array_n.xsa_dac.xswdac_2.xswp.
                                            tgb                1.00 
      807 xc_array_n.xsa_dac.xswdac_2.xswn.
                                            tgb                1.00 
      808 xc_array_n.xsa_dac.xswdac_2.xswin.
                                            tgb                1.00 
      809 xc_array_n.xsa_dac.xswdac_3.xi7.
                                            inv_bhv            1.00 
      810 xc_array_n.xsa_dac.xswdac_3.xi3.
                                            inv_bhv            1.00 
      811 xc_array_n.xsa_dac.xswdac_3.xi20.
                                            inv_bhv            1.00 
      812 xc_array_n.xsa_dac.xswdac_3.xi1.
                                            inv_bhv            1.00 
      813 xc_array_n.xsa_dac.xswdac_3.xi2.
                                            nand2_bhv          1.00 
      814 xc_array_n.xsa_dac.xswdac_3.xi19.
                                            nand2_bhv          1.00 
      815 xc_array_n.xsa_dac.xswdac_3.xswp.
                                            tgb                1.00 
      816 xc_array_n.xsa_dac.xswdac_3.xswn.
                                            tgb                1.00 
      817 xc_array_n.xsa_dac.xswdac_3.xswin.
                                            tgb                1.00 
      818 xc_array_n.xsa_dac.xswdac_4.xi7.
                                            inv_bhv            1.00 
      819 xc_array_n.xsa_dac.xswdac_4.xi3.
                                            inv_bhv            1.00 
      820 xc_array_n.xsa_dac.xswdac_4.xi20.
                                            inv_bhv            1.00 
      821 xc_array_n.xsa_dac.xswdac_4.xi1.
                                            inv_bhv            1.00 
      822 xc_array_n.xsa_dac.xswdac_4.xi2.
                                            nand2_bhv          1.00 
      823 xc_array_n.xsa_dac.xswdac_4.xi19.
                                            nand2_bhv          1.00 
      824 xc_array_n.xsa_dac.xswdac_4.xswp.
                                            tgb                1.00 
      825 xc_array_n.xsa_dac.xswdac_4.xswn.
                                            tgb                1.00 
      826 xc_array_n.xsa_dac.xswdac_4.xswin.
                                            tgb                1.00 
      827 xc_array_n.xsa_dac.xswdac_5.xi7.
                                            inv_bhv            1.00 
      828 xc_array_n.xsa_dac.xswdac_5.xi3.
                                            inv_bhv            1.00 
      829 xc_array_n.xsa_dac.xswdac_5.xi20.
                                            inv_bhv            1.00 
      830 xc_array_n.xsa_dac.xswdac_5.xi1.
                                            inv_bhv            1.00 
      831 xc_array_n.xsa_dac.xswdac_5.xi2.
                                            nand2_bhv          1.00 
      832 xc_array_n.xsa_dac.xswdac_5.xi19.
                                            nand2_bhv          1.00 
      833 xc_array_n.xsa_dac.xswdac_5.xswp.
                                            tgb                1.00 
      834 xc_array_n.xsa_dac.xswdac_5.xswn.
                                            tgb                1.00 
      835 xc_array_n.xsa_dac.xswdac_5.xswin.
                                            tgb                1.00 
      836 xc_array_n.xsa_dac.xswdac_6.xi7.
                                            inv_bhv            1.00 
      837 xc_array_n.xsa_dac.xswdac_6.xi3.
                                            inv_bhv            1.00 
      838 xc_array_n.xsa_dac.xswdac_6.xi20.
                                            inv_bhv            1.00 
      839 xc_array_n.xsa_dac.xswdac_6.xi1.
                                            inv_bhv            1.00 
      840 xc_array_n.xsa_dac.xswdac_6.xi2.
                                            nand2_bhv          1.00 
      841 xc_array_n.xsa_dac.xswdac_6.xi19.
                                            nand2_bhv          1.00 
      842 xc_array_n.xsa_dac.xswdac_6.xswp.
                                            tgb                1.00 
      843 xc_array_n.xsa_dac.xswdac_6.xswn.
                                            tgb                1.00 
      844 xc_array_n.xsa_dac.xswdac_6.xswin.
                                            tgb                1.00 
      845 xc_array_n.xsa_dac.xswdac_7.xi7.
                                            inv_bhv            1.00 
      846 xc_array_n.xsa_dac.xswdac_7.xi3.
                                            inv_bhv            1.00 
      847 xc_array_n.xsa_dac.xswdac_7.xi20.
                                            inv_bhv            1.00 
      848 xc_array_n.xsa_dac.xswdac_7.xi1.
                                            inv_bhv            1.00 
      849 xc_array_n.xsa_dac.xswdac_7.xi2.
                                            nand2_bhv          1.00 
      850 xc_array_n.xsa_dac.xswdac_7.xi19.
                                            nand2_bhv          1.00 
      851 xc_array_n.xsa_dac.xswdac_7.xswp.
                                            tgb                1.00 
      852 xc_array_n.xsa_dac.xswdac_7.xswn.
                                            tgb                1.00 
      853 xc_array_n.xsa_dac.xswdac_7.xswin.
                                            tgb                1.00 
      854 xc_array_n.xsa_dac.xi1.xp1.     pmos_b             1.00 
      855 xc_array_n.xsa_dac.xi1.xn1.     nmos_b             1.00 
      856 xc_array_p.xsa_dac.xswdac_0.xi7.
                                            inv_bhv            1.00 
      857 xc_array_p.xsa_dac.xswdac_0.xi3.
                                            inv_bhv            1.00 
      858 xc_array_p.xsa_dac.xswdac_0.xi20.
                                            inv_bhv            1.00 
      859 xc_array_p.xsa_dac.xswdac_0.xi1.
                                            inv_bhv            1.00 
      860 xc_array_p.xsa_dac.xswdac_0.xi2.
                                            nand2_bhv          1.00 
      861 xc_array_p.xsa_dac.xswdac_0.xi19.
                                            nand2_bhv          1.00 
      862 xc_array_p.xsa_dac.xswdac_0.xswp.
                                            tgb                1.00 
      863 xc_array_p.xsa_dac.xswdac_0.xswn.
                                            tgb                1.00 
      864 xc_array_p.xsa_dac.xswdac_0.xswin.
                                            tgb                1.00 
      865 xc_array_p.xsa_dac.xswdac_1.xi7.
                                            inv_bhv            1.00 
      866 xc_array_p.xsa_dac.xswdac_1.xi3.
                                            inv_bhv            1.00 
      867 xc_array_p.xsa_dac.xswdac_1.xi20.
                                            inv_bhv            1.00 
      868 xc_array_p.xsa_dac.xswdac_1.xi1.
                                            inv_bhv            1.00 
      869 xc_array_p.xsa_dac.xswdac_1.xi2.
                                            nand2_bhv          1.00 
      870 xc_array_p.xsa_dac.xswdac_1.xi19.
                                            nand2_bhv          1.00 
      871 xc_array_p.xsa_dac.xswdac_1.xswp.
                                            tgb                1.00 
      872 xc_array_p.xsa_dac.xswdac_1.xswn.
                                            tgb                1.00 
      873 xc_array_p.xsa_dac.xswdac_1.xswin.
                                            tgb                1.00 
      874 xc_array_p.xsa_dac.xswdac_2.xi7.
                                            inv_bhv            1.00 
      875 xc_array_p.xsa_dac.xswdac_2.xi3.
                                            inv_bhv            1.00 
      876 xc_array_p.xsa_dac.xswdac_2.xi20.
                                            inv_bhv            1.00 
      877 xc_array_p.xsa_dac.xswdac_2.xi1.
                                            inv_bhv            1.00 
      878 xc_array_p.xsa_dac.xswdac_2.xi2.
                                            nand2_bhv          1.00 
      879 xc_array_p.xsa_dac.xswdac_2.xi19.
                                            nand2_bhv          1.00 
      880 xc_array_p.xsa_dac.xswdac_2.xswp.
                                            tgb                1.00 
      881 xc_array_p.xsa_dac.xswdac_2.xswn.
                                            tgb                1.00 
      882 xc_array_p.xsa_dac.xswdac_2.xswin.
                                            tgb                1.00 
      883 xc_array_p.xsa_dac.xswdac_3.xi7.
                                            inv_bhv            1.00 
      884 xc_array_p.xsa_dac.xswdac_3.xi3.
                                            inv_bhv            1.00 
      885 xc_array_p.xsa_dac.xswdac_3.xi20.
                                            inv_bhv            1.00 
      886 xc_array_p.xsa_dac.xswdac_3.xi1.
                                            inv_bhv            1.00 
      887 xc_array_p.xsa_dac.xswdac_3.xi2.
                                            nand2_bhv          1.00 
      888 xc_array_p.xsa_dac.xswdac_3.xi19.
                                            nand2_bhv          1.00 
      889 xc_array_p.xsa_dac.xswdac_3.xswp.
                                            tgb                1.00 
      890 xc_array_p.xsa_dac.xswdac_3.xswn.
                                            tgb                1.00 
      891 xc_array_p.xsa_dac.xswdac_3.xswin.
                                            tgb                1.00 
      892 xc_array_p.xsa_dac.xswdac_4.xi7.
                                            inv_bhv            1.00 
      893 xc_array_p.xsa_dac.xswdac_4.xi3.
                                            inv_bhv            1.00 
      894 xc_array_p.xsa_dac.xswdac_4.xi20.
                                            inv_bhv            1.00 
      895 xc_array_p.xsa_dac.xswdac_4.xi1.
                                            inv_bhv            1.00 
      896 xc_array_p.xsa_dac.xswdac_4.xi2.
                                            nand2_bhv          1.00 
      897 xc_array_p.xsa_dac.xswdac_4.xi19.
                                            nand2_bhv          1.00 
      898 xc_array_p.xsa_dac.xswdac_4.xswp.
                                            tgb                1.00 
      899 xc_array_p.xsa_dac.xswdac_4.xswn.
                                            tgb                1.00 
      900 xc_array_p.xsa_dac.xswdac_4.xswin.
                                            tgb                1.00 
      901 xc_array_p.xsa_dac.xswdac_5.xi7.
                                            inv_bhv            1.00 
      902 xc_array_p.xsa_dac.xswdac_5.xi3.
                                            inv_bhv            1.00 
      903 xc_array_p.xsa_dac.xswdac_5.xi20.
                                            inv_bhv            1.00 
      904 xc_array_p.xsa_dac.xswdac_5.xi1.
                                            inv_bhv            1.00 
      905 xc_array_p.xsa_dac.xswdac_5.xi2.
                                            nand2_bhv          1.00 
      906 xc_array_p.xsa_dac.xswdac_5.xi19.
                                            nand2_bhv          1.00 
      907 xc_array_p.xsa_dac.xswdac_5.xswp.
                                            tgb                1.00 
      908 xc_array_p.xsa_dac.xswdac_5.xswn.
                                            tgb                1.00 
      909 xc_array_p.xsa_dac.xswdac_5.xswin.
                                            tgb                1.00 
      910 xc_array_p.xsa_dac.xswdac_6.xi7.
                                            inv_bhv            1.00 
      911 xc_array_p.xsa_dac.xswdac_6.xi3.
                                            inv_bhv            1.00 
      912 xc_array_p.xsa_dac.xswdac_6.xi20.
                                            inv_bhv            1.00 
      913 xc_array_p.xsa_dac.xswdac_6.xi1.
                                            inv_bhv            1.00 
      914 xc_array_p.xsa_dac.xswdac_6.xi2.
                                            nand2_bhv          1.00 
      915 xc_array_p.xsa_dac.xswdac_6.xi19.
                                            nand2_bhv          1.00 
      916 xc_array_p.xsa_dac.xswdac_6.xswp.
                                            tgb                1.00 
      917 xc_array_p.xsa_dac.xswdac_6.xswn.
                                            tgb                1.00 
      918 xc_array_p.xsa_dac.xswdac_6.xswin.
                                            tgb                1.00 
      919 xc_array_p.xsa_dac.xswdac_7.xi7.
                                            inv_bhv            1.00 
      920 xc_array_p.xsa_dac.xswdac_7.xi3.
                                            inv_bhv            1.00 
      921 xc_array_p.xsa_dac.xswdac_7.xi20.
                                            inv_bhv            1.00 
      922 xc_array_p.xsa_dac.xswdac_7.xi1.
                                            inv_bhv            1.00 
      923 xc_array_p.xsa_dac.xswdac_7.xi2.
                                            nand2_bhv          1.00 
      924 xc_array_p.xsa_dac.xswdac_7.xi19.
                                            nand2_bhv          1.00 
      925 xc_array_p.xsa_dac.xswdac_7.xswp.
                                            tgb                1.00 
      926 xc_array_p.xsa_dac.xswdac_7.xswn.
                                            tgb                1.00 
      927 xc_array_p.xsa_dac.xswdac_7.xswin.
                                            tgb                1.00 
      928 xc_array_p.xsa_dac.xi1.xp1.     pmos_b             1.00 
      929 xc_array_p.xsa_dac.xi1.xn1.     nmos_b             1.00 
      930 xc_array_n.xsa_dac.xswdac_0.xi7.xp1.
                                            pmos_b             1.00 
      931 xc_array_n.xsa_dac.xswdac_0.xi7.xn1.
                                            nmos_b             1.00 
      932 xc_array_n.xsa_dac.xswdac_0.xi3.xp1.
                                            pmos_b             1.00 
      933 xc_array_n.xsa_dac.xswdac_0.xi3.xn1.
                                            nmos_b             1.00 
      934 xc_array_n.xsa_dac.xswdac_0.xi20.xp1.
                                            pmos_b             1.00 
      935 xc_array_n.xsa_dac.xswdac_0.xi20.xn1.
                                            nmos_b             1.00 
      936 xc_array_n.xsa_dac.xswdac_0.xi1.xp1.
                                            pmos_b             1.00 
      937 xc_array_n.xsa_dac.xswdac_0.xi1.xn1.
                                            nmos_b             1.00 
      938 xc_array_n.xsa_dac.xswdac_0.xi2.xn1.
                                            nmos_b             1.00 
      939 xc_array_n.xsa_dac.xswdac_0.xi2.xi9.
                                            nmos_b             1.00 
      940 xc_array_n.xsa_dac.xswdac_0.xi2.xp1.
                                            pmos_b             1.00 
      941 xc_array_n.xsa_dac.xswdac_0.xi2.xi10.
                                            pmos_b             1.00 
      942 xc_array_n.xsa_dac.xswdac_0.xi19.xn1.
                                            nmos_b             1.00 
      943 xc_array_n.xsa_dac.xswdac_0.xi19.xi9.
                                            nmos_b             1.00 
      944 xc_array_n.xsa_dac.xswdac_0.xi19.xp1.
                                            pmos_b             1.00 
      945 xc_array_n.xsa_dac.xswdac_0.xi19.xi10.
                                            pmos_b             1.00 
      946 xc_array_n.xsa_dac.xswdac_1.xi7.xp1.
                                            pmos_b             1.00 
      947 xc_array_n.xsa_dac.xswdac_1.xi7.xn1.
                                            nmos_b             1.00 
      948 xc_array_n.xsa_dac.xswdac_1.xi3.xp1.
                                            pmos_b             1.00 
      949 xc_array_n.xsa_dac.xswdac_1.xi3.xn1.
                                            nmos_b             1.00 
      950 xc_array_n.xsa_dac.xswdac_1.xi20.xp1.
                                            pmos_b             1.00 
      951 xc_array_n.xsa_dac.xswdac_1.xi20.xn1.
                                            nmos_b             1.00 
      952 xc_array_n.xsa_dac.xswdac_1.xi1.xp1.
                                            pmos_b             1.00 
      953 xc_array_n.xsa_dac.xswdac_1.xi1.xn1.
                                            nmos_b             1.00 
      954 xc_array_n.xsa_dac.xswdac_1.xi2.xn1.
                                            nmos_b             1.00 
      955 xc_array_n.xsa_dac.xswdac_1.xi2.xi9.
                                            nmos_b             1.00 
      956 xc_array_n.xsa_dac.xswdac_1.xi2.xp1.
                                            pmos_b             1.00 
      957 xc_array_n.xsa_dac.xswdac_1.xi2.xi10.
                                            pmos_b             1.00 
      958 xc_array_n.xsa_dac.xswdac_1.xi19.xn1.
                                            nmos_b             1.00 
      959 xc_array_n.xsa_dac.xswdac_1.xi19.xi9.
                                            nmos_b             1.00 
      960 xc_array_n.xsa_dac.xswdac_1.xi19.xp1.
                                            pmos_b             1.00 
      961 xc_array_n.xsa_dac.xswdac_1.xi19.xi10.
                                            pmos_b             1.00 
      962 xc_array_n.xsa_dac.xswdac_2.xi7.xp1.
                                            pmos_b             1.00 
      963 xc_array_n.xsa_dac.xswdac_2.xi7.xn1.
                                            nmos_b             1.00 
      964 xc_array_n.xsa_dac.xswdac_2.xi3.xp1.
                                            pmos_b             1.00 
      965 xc_array_n.xsa_dac.xswdac_2.xi3.xn1.
                                            nmos_b             1.00 
      966 xc_array_n.xsa_dac.xswdac_2.xi20.xp1.
                                            pmos_b             1.00 
      967 xc_array_n.xsa_dac.xswdac_2.xi20.xn1.
                                            nmos_b             1.00 
      968 xc_array_n.xsa_dac.xswdac_2.xi1.xp1.
                                            pmos_b             1.00 
      969 xc_array_n.xsa_dac.xswdac_2.xi1.xn1.
                                            nmos_b             1.00 
      970 xc_array_n.xsa_dac.xswdac_2.xi2.xn1.
                                            nmos_b             1.00 
      971 xc_array_n.xsa_dac.xswdac_2.xi2.xi9.
                                            nmos_b             1.00 
      972 xc_array_n.xsa_dac.xswdac_2.xi2.xp1.
                                            pmos_b             1.00 
      973 xc_array_n.xsa_dac.xswdac_2.xi2.xi10.
                                            pmos_b             1.00 
      974 xc_array_n.xsa_dac.xswdac_2.xi19.xn1.
                                            nmos_b             1.00 
      975 xc_array_n.xsa_dac.xswdac_2.xi19.xi9.
                                            nmos_b             1.00 
      976 xc_array_n.xsa_dac.xswdac_2.xi19.xp1.
                                            pmos_b             1.00 
      977 xc_array_n.xsa_dac.xswdac_2.xi19.xi10.
                                            pmos_b             1.00 
      978 xc_array_n.xsa_dac.xswdac_3.xi7.xp1.
                                            pmos_b             1.00 
      979 xc_array_n.xsa_dac.xswdac_3.xi7.xn1.
                                            nmos_b             1.00 
      980 xc_array_n.xsa_dac.xswdac_3.xi3.xp1.
                                            pmos_b             1.00 
      981 xc_array_n.xsa_dac.xswdac_3.xi3.xn1.
                                            nmos_b             1.00 
      982 xc_array_n.xsa_dac.xswdac_3.xi20.xp1.
                                            pmos_b             1.00 
      983 xc_array_n.xsa_dac.xswdac_3.xi20.xn1.
                                            nmos_b             1.00 
      984 xc_array_n.xsa_dac.xswdac_3.xi1.xp1.
                                            pmos_b             1.00 
      985 xc_array_n.xsa_dac.xswdac_3.xi1.xn1.
                                            nmos_b             1.00 
      986 xc_array_n.xsa_dac.xswdac_3.xi2.xn1.
                                            nmos_b             1.00 
      987 xc_array_n.xsa_dac.xswdac_3.xi2.xi9.
                                            nmos_b             1.00 
      988 xc_array_n.xsa_dac.xswdac_3.xi2.xp1.
                                            pmos_b             1.00 
      989 xc_array_n.xsa_dac.xswdac_3.xi2.xi10.
                                            pmos_b             1.00 
      990 xc_array_n.xsa_dac.xswdac_3.xi19.xn1.
                                            nmos_b             1.00 
      991 xc_array_n.xsa_dac.xswdac_3.xi19.xi9.
                                            nmos_b             1.00 
      992 xc_array_n.xsa_dac.xswdac_3.xi19.xp1.
                                            pmos_b             1.00 
      993 xc_array_n.xsa_dac.xswdac_3.xi19.xi10.
                                            pmos_b             1.00 
      994 xc_array_n.xsa_dac.xswdac_4.xi7.xp1.
                                            pmos_b             1.00 
      995 xc_array_n.xsa_dac.xswdac_4.xi7.xn1.
                                            nmos_b             1.00 
      996 xc_array_n.xsa_dac.xswdac_4.xi3.xp1.
                                            pmos_b             1.00 
      997 xc_array_n.xsa_dac.xswdac_4.xi3.xn1.
                                            nmos_b             1.00 
      998 xc_array_n.xsa_dac.xswdac_4.xi20.xp1.
                                            pmos_b             1.00 
      999 xc_array_n.xsa_dac.xswdac_4.xi20.xn1.
                                            nmos_b             1.00 
     1000 xc_array_n.xsa_dac.xswdac_4.xi1.xp1.
                                            pmos_b             1.00 
     1001 xc_array_n.xsa_dac.xswdac_4.xi1.xn1.
                                            nmos_b             1.00 
     1002 xc_array_n.xsa_dac.xswdac_4.xi2.xn1.
                                            nmos_b             1.00 
     1003 xc_array_n.xsa_dac.xswdac_4.xi2.xi9.
                                            nmos_b             1.00 
     1004 xc_array_n.xsa_dac.xswdac_4.xi2.xp1.
                                            pmos_b             1.00 
     1005 xc_array_n.xsa_dac.xswdac_4.xi2.xi10.
                                            pmos_b             1.00 
     1006 xc_array_n.xsa_dac.xswdac_4.xi19.xn1.
[...]



 subckt        xi22.xda      xi22.xda      xi22.xda      xi22.xda
 element   736:g1        737:g1        738:g1        739:g1      
  r value      10.0000      1.000e+15      10.0000      1.000e+15



 subckt        xi22.xda      xi22.xda      xi22.xda      xi22.xda
 element   740:g1        741:g1        742:g1        743:g1      
  r value      10.0000      1.000e+15     1.000e+15     1.000e+15



 subckt        xi22.xda      xi22.xda      xi22.xrs      xi22.xrs
 element   744:g1        745:g1        746:g1        747:g1      
  r value      10.0000       10.0000      1.000e+15      10.0000 



 subckt        xi22.xrs      xi22.xrs      xi22.xrs      xi22.xrs
 element   748:g1        749:g1        750:g1        751:g1      
  r value      10.0000      1.000e+15      10.0000      1.000e+15



 subckt        xi22.xrs      xi22.xrs      xi22.xrs      xi22.xrs
 element   752:g1        753:g1        754:g1        755:g1      
  r value     1.000e+15     1.000e+15      10.0000       10.0000 



 subckt        xi22.xrs      xi22.xrs      xi22.xrs      xi22.xrs
 element   756:g1        757:g1        758:g1        759:g1      
  r value     1.000e+15     1.000e+15      10.0000       10.0000 



 subckt        xi22.xrs      xi22.xrs      xi22.xrs      xi22.xrs
 element   760:g1        761:g1        762:g1        763:g1      
  r value      10.0000      1.000e+15      10.0000      1.000e+15



 subckt        xi22.xrs      xi22.xrs      xi22.xrs      xi22.xrs
 element   764:g1        765:g1        766:g1        767:g1      
  r value     1.000e+15      10.0000       10.0000      1.000e+15



 subckt        xi22.xrs      xi22.xrs      xi22.xrs      xi22.xrs
 element   768:g1        769:g1        770:g1        771:g1      
  r value      10.0000      1.000e+15     1.000e+15     1.000e+15



 subckt        xi22.xrs      xi22.xrs      xi22.xrs      xi22.xrs
 element   772:g1        773:g1        774:g1        775:g1      
  r value      10.0000       10.0000      1.000e+15     1.000e+15



 subckt        xi22.xrs      xi22.xrs      xi22.xrs      xi22.xrs
 element   776:g1        777:g1        778:g1        779:g1      
  r value      10.0000       10.0000       10.0000      1.000e+15



 subckt        xi22.xrs      xi22.xrs      xc_array      xc_array
 element   780:g1        781:g1        788:g1        789:g1      
  r value      10.0000      1.000e+15      10.0000      1.000e+15



 subckt        xc_array      xc_array      xc_array      xc_array
 element   790:g1        797:g1        798:g1        799:g1      
  r value     1.000e+15      10.0000      1.000e+15     1.000e+15



 subckt        xc_array      xc_array      xc_array      xc_array
 element   806:g1        807:g1        808:g1        815:g1      
  r value      10.0000      1.000e+15     1.000e+15      10.0000 



 subckt        xc_array      xc_array      xc_array      xc_array
 element   816:g1        817:g1        824:g1        825:g1      
  r value     1.000e+15     1.000e+15      10.0000      1.000e+15



 subckt        xc_array      xc_array      xc_array      xc_array
 element   826:g1        833:g1        834:g1        835:g1      
  r value     1.000e+15      10.0000      1.000e+15     1.000e+15



 subckt        xc_array      xc_array      xc_array      xc_array
 element   842:g1        843:g1        844:g1        851:g1      
  r value      10.0000      1.000e+15     1.000e+15      10.0000 



 subckt        xc_array      xc_array      xc_array      xc_array
 element   852:g1        853:g1        854:g1        855:g1      
  r value     1.000e+15     1.000e+15      10.0000      1.000e+15



 subckt        xc_array      xc_array      xc_array      xc_array
 element   862:g1        863:g1        864:g1        871:g1      
  r value      10.0000      1.000e+15     1.000e+15      10.0000 



 subckt        xc_array      xc_array      xc_array      xc_array
 element   872:g1        873:g1        880:g1        881:g1      
  r value     1.000e+15     1.000e+15      10.0000      1.000e+15



 subckt        xc_array      xc_array      xc_array      xc_array
 element   882:g1        889:g1        890:g1        891:g1      
  r value     1.000e+15      10.0000      1.000e+15     1.000e+15



 subckt        xc_array      xc_array      xc_array      xc_array
 element   898:g1        899:g1        900:g1        907:g1      
  r value      10.0000      1.000e+15     1.000e+15      10.0000 



 subckt        xc_array      xc_array      xc_array      xc_array
 element   908:g1        909:g1        916:g1        917:g1      
  r value     1.000e+15     1.000e+15      10.0000      1.000e+15



 subckt        xc_array      xc_array      xc_array      xc_array
 element   918:g1        925:g1        926:g1        927:g1      
  r value     1.000e+15      10.0000      1.000e+15     1.000e+15



 subckt        xc_array      xc_array      xc_array      xc_array
 element   928:g1        929:g1        930:g1        931:g1      
  r value      10.0000      1.000e+15      10.0000      1.000e+15



 subckt        xc_array      xc_array      xc_array      xc_array
 element   932:g1        933:g1        934:g1        935:g1      
  r value     1.000e+15      10.0000       10.0000      1.000e+15



 subckt        xc_array      xc_array      xc_array      xc_array
 element   936:g1        937:g1        938:g1        939:g1      
  r value     1.000e+15      10.0000      1.000e+15      10.0000 



 subckt        xc_array      xc_array      xc_array      xc_array
 element   940:g1        941:g1        942:g1        943:g1      
  r value     1.000e+15      10.0000       10.0000       10.0000 



 subckt        xc_array      xc_array      xc_array      xc_array
 element   944:g1        945:g1        946:g1        947:g1      
  r value     1.000e+15     1.000e+15      10.0000      1.000e+15



 subckt        xc_array      xc_array      xc_array      xc_array
 element   948:g1        949:g1        950:g1        951:g1      
  r value     1.000e+15      10.0000       10.0000      1.000e+15



 subckt        xc_array      xc_array      xc_array      xc_array
 element   952:g1        953:g1        954:g1        955:g1      
  r value     1.000e+15      10.0000      1.000e+15      10.0000 



 subckt        xc_array      xc_array      xc_array      xc_array
 element   956:g1        957:g1        958:g1        959:g1      
  r value     1.000e+15      10.0000       10.0000       10.0000 



 subckt        xc_array      xc_array      xc_array      xc_array
 element   960:g1        961:g1        962:g1        963:g1      
  r value     1.000e+15     1.000e+15      10.0000      1.000e+15



 subckt        xc_array      xc_array      xc_array      xc_array
 element   964:g1        965:g1        966:g1        967:g1      
  r value     1.000e+15      10.0000       10.0000      1.000e+15



 subckt        xc_array      xc_array      xc_array      xc_array
 element   968:g1        969:g1        970:g1        971:g1      
  r value     1.000e+15      10.0000      1.000e+15      10.0000 



 subckt        xc_array      xc_array      xc_array      xc_array
 element   972:g1        973:g1        974:g1        975:g1      
  r value     1.000e+15      10.0000       10.0000       10.0000 



 subckt        xc_array      xc_array      xc_array      xc_array
 element   976:g1        977:g1        978:g1        979:g1      
  r value     1.000e+15     1.000e+15      10.0000      1.000e+15



 subckt        xc_array      xc_array      xc_array      xc_array
 element   980:g1        981:g1        982:g1        983:g1      
  r value     1.000e+15      10.0000       10.0000      1.000e+15



 subckt        xc_array      xc_array      xc_array      xc_array
 element   984:g1        985:g1        986:g1        987:g1      
  r value     1.000e+15      10.0000      1.000e+15      10.0000 



 subckt        xc_array      xc_array      xc_array      xc_array
 element   988:g1        989:g1        990:g1        991:g1      
  r value     1.000e+15      10.0000       10.0000       10.0000 



 subckt        xc_array      xc_array      xc_array      xc_array
 element   992:g1        993:g1        994:g1        995:g1      
  r value     1.000e+15     1.000e+15      10.0000      1.000e+15



 subckt        xc_array      xc_array      xc_array      xc_array
 element   996:g1        997:g1        998:g1        999:g1      
  r value     1.000e+15      10.0000       10.0000      1.000e+15



 subckt        xc_array      xc_array      xc_array      xc_array
 element  1000:g1       1001:g1       1002:g1       1003:g1      
  r value     1.000e+15      10.0000      1.000e+15      10.0000 



 subckt        xc_array      xc_array      xc_array      xc_array
 element  1004:g1       1005:g1       1006:g1       1007:g1      
  r value     1.000e+15      10.0000       10.0000       10.0000 



 subckt        xc_array      xc_array      xc_array      xc_array
 element  1008:g1       1009:g1       1010:g1       1011:g1      
  r value     1.000e+15     1.000e+15      10.0000      1.000e+15



 subckt        xc_array      xc_array      xc_array      xc_array
 element  1012:g1       1013:g1       1014:g1       1015:g1      
  r value     1.000e+15      10.0000       10.0000      1.000e+15



 subckt        xc_array      xc_array      xc_array      xc_array
 element  1016:g1       1017:g1       1018:g1       1019:g1      
  r value     1.000e+15      10.0000      1.000e+15      10.0000 



 subckt        xc_array      xc_array      xc_array      xc_array
 element  1020:g1       1021:g1       1022:g1       1023:g1      
  r value     1.000e+15      10.0000       10.0000       10.0000 



 subckt        xc_array      xc_array      xc_array      xc_array
 element  1024:g1       1025:g1       1026:g1       1027:g1      
  r value     1.000e+15     1.000e+15      10.0000      1.000e+15



 subckt        xc_array      xc_array      xc_array      xc_array
 element  1028:g1       1029:g1       1030:g1       1031:g1      
  r value     1.000e+15      10.0000       10.0000      1.000e+15



 subckt        xc_array      xc_array      xc_array      xc_array
 element  1032:g1       1033:g1       1034:g1       1035:g1      
  r value     1.000e+15      10.0000      1.000e+15      10.0000 



 subckt        xc_array      xc_array      xc_array      xc_array
 element  1036:g1       1037:g1       1038:g1       1039:g1      
  r value     1.000e+15      10.0000       10.0000       10.0000 



 subckt        xc_array      xc_array      xc_array      xc_array
 element  1040:g1       1041:g1       1042:g1       1043:g1      
  r value     1.000e+15     1.000e+15      10.0000      1.000e+15



 subckt        xc_array      xc_array      xc_array      xc_array
 element  1044:g1       1045:g1       1046:g1       1047:g1      
  r value     1.000e+15      10.0000       10.0000      1.000e+15



 subckt        xc_array      xc_array      xc_array      xc_array
 element  1048:g1       1049:g1       1050:g1       1051:g1      
  r value     1.000e+15      10.0000      1.000e+15      10.0000 



 subckt        xc_array      xc_array      xc_array      xc_array
 element  1052:g1       1053:g1       1054:g1       1055:g1      
  r value     1.000e+15      10.0000       10.0000       10.0000 



 subckt        xc_array      xc_array      xc_array      xc_array
 element  1056:g1       1057:g1       1058:g1       1059:g1      
  r value     1.000e+15     1.000e+15      10.0000      1.000e+15



 subckt        xc_array      xc_array      xc_array      xc_array
 element  1060:g1       1061:g1       1062:g1       1063:g1      
  r value     1.000e+15      10.0000       10.0000      1.000e+15



 subckt        xc_array      xc_array      xc_array      xc_array
 element  1064:g1       1065:g1       1066:g1       1067:g1      
  r value     1.000e+15      10.0000      1.000e+15      10.0000 



 subckt        xc_array      xc_array      xc_array      xc_array
 element  1068:g1       1069:g1       1070:g1       1071:g1      
  r value     1.000e+15      10.0000       10.0000       10.0000 



 subckt        xc_array      xc_array      xc_array      xc_array
 element  1072:g1       1073:g1       1074:g1       1075:g1      
  r value     1.000e+15     1.000e+15      10.0000      1.000e+15



 subckt        xc_array      xc_array      xc_array      xc_array
 element  1076:g1       1077:g1       1078:g1       1079:g1      
  r value     1.000e+15      10.0000       10.0000      1.000e+15



 subckt        xc_array      xc_array      xc_array      xc_array
 element  1080:g1       1081:g1       1082:g1       1083:g1      
  r value     1.000e+15      10.0000      1.000e+15      10.0000 



 subckt        xc_array      xc_array      xc_array      xc_array
 element  1084:g1       1085:g1       1086:g1       1087:g1      
  r value     1.000e+15      10.0000       10.0000       10.0000 



 subckt        xc_array      xc_array      xc_array      xc_array
 element  1088:g1       1089:g1       1090:g1       1091:g1      
  r value     1.000e+15     1.000e+15      10.0000      1.000e+15



 subckt        xc_array      xc_array      xc_array      xc_array
 element  1092:g1       1093:g1       1094:g1       1095:g1      
  r value     1.000e+15      10.0000       10.0000      1.000e+15



 subckt        xc_array      xc_array      xc_array      xc_array
 element  1096:g1       1097:g1       1098:g1       1099:g1      
  r value     1.000e+15      10.0000      1.000e+15      10.0000 



 subckt        xc_array      xc_array      xc_array      xc_array
 element  1100:g1       1101:g1       1102:g1       1103:g1      
  r value     1.000e+15      10.0000       10.0000       10.0000 



 subckt        xc_array      xc_array      xc_array      xc_array
 element  1104:g1       1105:g1       1106:g1       1107:g1      
  r value     1.000e+15     1.000e+15      10.0000      1.000e+15



 subckt        xc_array      xc_array      xc_array      xc_array
 element  1108:g1       1109:g1       1110:g1       1111:g1      
  r value     1.000e+15      10.0000       10.0000      1.000e+15



 subckt        xc_array      xc_array      xc_array      xc_array
 element  1112:g1       1113:g1       1114:g1       1115:g1      
  r value     1.000e+15      10.0000      1.000e+15      10.0000 



 subckt        xc_array      xc_array      xc_array      xc_array
 element  1116:g1       1117:g1       1118:g1       1119:g1      
  r value     1.000e+15      10.0000       10.0000       10.0000 



 subckt        xc_array      xc_array      xc_array      xc_array
 element  1120:g1       1121:g1       1122:g1       1123:g1      
  r value     1.000e+15     1.000e+15      10.0000      1.000e+15



 subckt        xc_array      xc_array      xc_array      xc_array
 element  1124:g1       1125:g1       1126:g1       1127:g1      
  r value     1.000e+15      10.0000       10.0000      1.000e+15



 subckt        xc_array      xc_array      xc_array      xc_array
 element  1128:g1       1129:g1       1130:g1       1131:g1      
  r value     1.000e+15      10.0000      1.000e+15      10.0000 



 subckt        xc_array      xc_array      xc_array      xc_array
 element  1132:g1       1133:g1       1134:g1       1135:g1      
  r value     1.000e+15      10.0000       10.0000       10.0000 



 subckt        xc_array      xc_array      xc_array      xc_array
 element  1136:g1       1137:g1       1138:g1       1139:g1      
  r value     1.000e+15     1.000e+15      10.0000      1.000e+15



 subckt        xc_array      xc_array      xc_array      xc_array
 element  1140:g1       1141:g1       1142:g1       1143:g1      
  r value     1.000e+15      10.0000       10.0000      1.000e+15



 subckt        xc_array      xc_array      xc_array      xc_array
 element  1144:g1       1145:g1       1146:g1       1147:g1      
  r value     1.000e+15      10.0000      1.000e+15      10.0000 



 subckt        xc_array      xc_array      xc_array      xc_array
 element  1148:g1       1149:g1       1150:g1       1151:g1      
  r value     1.000e+15      10.0000       10.0000       10.0000 



 subckt        xc_array      xc_array      xc_array      xc_array
 element  1152:g1       1153:g1       1154:g1       1155:g1      
  r value     1.000e+15     1.000e+15      10.0000      1.000e+15



 subckt        xc_array      xc_array      xc_array      xc_array
 element  1156:g1       1157:g1       1158:g1       1159:g1      
  r value     1.000e+15      10.0000       10.0000      1.000e+15



 subckt        xc_array      xc_array      xc_array      xc_array
 element  1160:g1       1161:g1       1162:g1       1163:g1      
  r value     1.000e+15      10.0000      1.000e+15      10.0000 



 subckt        xc_array      xc_array      xc_array      xc_array
 element  1164:g1       1165:g1       1166:g1       1167:g1      
  r value     1.000e+15      10.0000       10.0000       10.0000 



 subckt        xc_array      xc_array      xc_array      xc_array
 element  1168:g1       1169:g1       1170:g1       1171:g1      
  r value     1.000e+15     1.000e+15      10.0000      1.000e+15



 subckt        xc_array      xc_array      xc_array      xc_array
 element  1172:g1       1173:g1       1174:g1       1175:g1      
  r value     1.000e+15      10.0000       10.0000      1.000e+15



 subckt        xc_array      xc_array      xc_array      xc_array
 element  1176:g1       1177:g1       1178:g1       1179:g1      
  r value     1.000e+15      10.0000      1.000e+15      10.0000 



 subckt        xc_array      xc_array      xc_array      xc_array
 element  1180:g1       1181:g1       1182:g1       1183:g1      
  r value     1.000e+15      10.0000       10.0000       10.0000 



 subckt        xc_array      xc_array
 element  1184:g1       1185:g1      
  r value     1.000e+15     1.000e+15




 **** voltage-controlled voltage sources


 subckt                      xi24    
 element     0:evcm1       1:evcvs   
  volts       500.0000m       1.0842f
  current      -9.0010p    -1.608e-27




          ***** job concluded
 ******  
 * idc_mod simulation

 ****** job statistics summary tnom=  25.000 temp=  60.000 ******
  
 ******  Machine Information  ******
 CPU:
 model name	: Intel(R) Xeon(R) Silver 4110 CPU @ 2.10GHz
 cpu MHz	: 2100.000
  
 OS:
 Linux version 3.10.0-957.el7.x86_64 (mockbuild@kbuilder.bsys.centos.org) (gcc version 4.8.5 20150623 (Red Hat 4.8.5-36) (GCC) ) #1 SMP Thu Nov 8 23:39:32 UTC 2018


  ******  HSPICE Threads Information  ******

  Command Line Threads Count :     1
  Available CPU Count        :    32
  Actual Threads Count       :     1


  ******  Circuit Statistics  ******
  # nodes       =     612 # elements   =    4001
  # resistors   =    1957 # capacitors =    1128 # inductors   =       0
  # mutual_inds =       0 # vccs       =     902 # vcvs        =       2
  # cccs        =       0 # ccvs       =       0 # volt_srcs   =      12
  # curr_srcs   =       0 # diodes     =       0 # bjts        =       0
  # jfets       =       0 # mosfets    =       0 # U elements  =       0
  # T elements  =       0 # W elements =       0 # B elements  =       0
  # S elements  =       0 # P elements =       0 # va device   =       0
  # vector_srcs =       0 # N elements =       0


  ******  Runtime Statistics (seconds)  ******

  analysis           time    # points   tot. iter  conv.iter
  op point           0.16           1          11
  transient       2271.08         101     3427363     1392674 rev=     82989
  readin             0.02
  errchk             0.12
  setup              0.03
  output             0.00


           peak memory used        327.43 megabytes
           total cpu time         2271.36 seconds
           total elapsed time     2795.65 seconds
           job started at     16:32:20 10/01/2019
           job ended   at     17:18:56 10/01/2019



>info:         ***** hspice job concluded
 lic: Release hspice token(s) 
 lic: total license checkout elapse time:        0.45(s)
