Using: /usr/cad/synopsys/hspice/cur/hspice/linux64/hspice bhv.sp
 ****** HSPICE -- O-2018.09 linux64 (Aug 26 2018) ******                        
  Copyright (c) 1986 - 2019 by Synopsys, Inc. All Rights Reserved.              
  This software and the associated documentation are proprietary
  to Synopsys, Inc. This software may only be used in accordance
  with the terms and conditions of a written license agreement with
  Synopsys, Inc. All other use, reproduction, or distribution of
  this software is strictly prohibited.
  Input File: bhv.sp                                                            
  Command line options: /usr/cad/synopsys/hspice/cur/hspice/linux64/hspice bhv.sp
 lic:  
 lic: FLEXlm: SDK_11.6.9.6 
 lic: USER:   ychuang              HOSTNAME: adc 
 lic: HOSTID: "b026281535a3"       PID:      84610 
 lic: Using FLEXlm license file: 
 lic: 26585@lsnctu 
 lic: Checkout 1 hspice 
 lic: License/Maintenance for hspice will expire on 14-may-2022/2018.09 
 lic: 119(in_use)/190(total) FLOATING license(s) on SERVER 26585@lsnctu 
 lic:   
  **warning** (bhv.sp:128) unknown command ".post" is ignored
1****** HSPICE -- O-2018.09 linux64 (Aug 26 2018) ******                        
 ******  
 *behavior simulation

 ****** circuit name directory
 circuit number to circuit name directory
   number circuitname                     definition         multiplier
        0 main circuit
        1 xi16.                           mod1_g103_with_1b_dac
                                                                 1.00 
        2 xi15.                           mod1               1.00 
        3 xi14.                           adder_cmp_1b_ciff2_schematic
                                                                 1.00 
        4 xclk_fb.                        clk_fb_1bit        1.00 
        5 xi16.xdac.                      dac_int_1bit       1.00 
        6 xi16.xsw3.                      tgb                1.00 
        7 xi16.xsw7.                      tgb                1.00 
        8 xi16.xswinn.                    tgb                1.00 
        9 xi16.xsw2.                      tgb                1.00 
       10 xi16.xsw6.                      tgb                1.00 
       11 xi16.xi12.                      tgb                1.00 
       12 xi16.xi13.                      tgb                1.00 
       13 xi16.xswinp.                    tgb                1.00 
       14 xi16.xop.                       fdopb              1.00 
       15 xi15.xi65.                      tgb                1.00 
       16 xi15.xsw7.                      tgb                1.00 
       17 xi15.xsw3.                      tgb                1.00 
       18 xi15.xswinn.                    tgb                1.00 
       19 xi15.xswinp.                    tgb                1.00 
       20 xi15.xsw2.                      tgb                1.00 
       21 xi15.xsw6.                      tgb                1.00 
       22 xi15.xi6.                       tgb                1.00 
       23 xi15.xi9.                       tgb                1.00 
       24 xi15.xi66.                      tgb                1.00 
       25 xi15.xop.                       fdopb              1.00 
       26 xi14.xpreamp_bhv.               preamp_cmp_b       1.00 
       27 xi14.xcmp3.                     cmp_clk            1.00 
       28 xi14.xi1.                       inv_bhv            1.00 
       29 xi14.xi52.                      tgb                1.00 
       30 xi14.xi63.                      tgb                1.00 
       31 xi14.xi62.                      tgb                1.00 
       32 xi14.xi55.                      tgb                1.00 
       33 xi14.xi56.                      tgb                1.00 
       34 xi14.xi65.                      tgb                1.00 
       35 xi14.xi64.                      tgb                1.00 
       36 xi14.xi60.                      tgb                1.00 
       37 xi14.xi59.                      tgb                1.00 
       38 xi14.xi13.                      tgb                1.00 
       39 xi14.xi9.                       tgb                1.00 
       40 xi14.xsw1.                      tgb                1.00 
       41 xi14.xi2.                       tgb                1.00 
       42 xi14.xsw4.                      tgb                1.00 
       43 xclk_fb.xi64.                   inv_bhv            1.00 
       44 xclk_fb.xi20.                   inv_bhv            1.00 
       45 xclk_fb.xi60.                   inv_bhv            1.00 
       46 xclk_fb.xi59.                   inv_bhv            1.00 
       47 xclk_fb.xi63.                   inv_bhv            1.00 
       48 xclk_fb.xi62.                   nand2_bhv          1.00 
       49 xclk_fb.xi19.                   nand2_bhv          1.00 
       50 xi16.xdac.xi6.                  tgb                1.00 
       51 xi16.xdac.xi7.                  tgb                1.00 
       52 xi16.xdac.xi40.                 tgb                1.00 
       53 xi16.xdac.xi41.                 tgb                1.00 
       54 xi14.xcmp3.xdff.                dff                1.00 
       55 xi14.xcmp3.xpreamp.             amp_cmp            1.00 
       56 xi14.xi1.xp1.                   pmos_b             1.00 
       57 xi14.xi1.xn1.                   nmos_b             1.00 
       58 xclk_fb.xi64.xp1.               pmos_b             1.00 
       59 xclk_fb.xi64.xn1.               nmos_b             1.00 
       60 xclk_fb.xi20.xp1.               pmos_b             1.00 
       61 xclk_fb.xi20.xn1.               nmos_b             1.00 
       62 xclk_fb.xi60.xp1.               pmos_b             1.00 
       63 xclk_fb.xi60.xn1.               nmos_b             1.00 
       64 xclk_fb.xi59.xp1.               pmos_b             1.00 
       65 xclk_fb.xi59.xn1.               nmos_b             1.00 
       66 xclk_fb.xi63.xp1.               pmos_b             1.00 
       67 xclk_fb.xi63.xn1.               nmos_b             1.00 
       68 xclk_fb.xi62.xn1.               nmos_b             1.00 
       69 xclk_fb.xi62.xi9.               nmos_b             1.00 
       70 xclk_fb.xi62.xp1.               pmos_b             1.00 
       71 xclk_fb.xi62.xi10.              pmos_b             1.00 
       72 xclk_fb.xi19.xn1.               nmos_b             1.00 
       73 xclk_fb.xi19.xi9.               nmos_b             1.00 
       74 xclk_fb.xi19.xp1.               pmos_b             1.00 
       75 xclk_fb.xi19.xi10.              pmos_b             1.00 
       76 xi14.xcmp3.xdff.xi13.           dlatch             1.00 
       77 xi14.xcmp3.xdff.xi14.           dlatch             1.00 
       78 xi14.xcmp3.xdff.xi13.xi2.       inv_bhv            1.00 
       79 xi14.xcmp3.xdff.xi13.xi1.       inv_bhv            1.00 
       80 xi14.xcmp3.xdff.xi13.xi29.      tgb                1.00 
       81 xi14.xcmp3.xdff.xi13.xsw1.      tgb                1.00 
       82 xi14.xcmp3.xdff.xi14.xi2.       inv_bhv            1.00 
       83 xi14.xcmp3.xdff.xi14.xi1.       inv_bhv            1.00 
       84 xi14.xcmp3.xdff.xi14.xi29.      tgb                1.00 
       85 xi14.xcmp3.xdff.xi14.xsw1.      tgb                1.00 
       86 xi14.xcmp3.xdff.xi13.xi2.xp1.   pmos_b             1.00 
       87 xi14.xcmp3.xdff.xi13.xi2.xn1.   nmos_b             1.00 
       88 xi14.xcmp3.xdff.xi13.xi1.xp1.   pmos_b             1.00 
       89 xi14.xcmp3.xdff.xi13.xi1.xn1.   nmos_b             1.00 
       90 xi14.xcmp3.xdff.xi14.xi2.xp1.   pmos_b             1.00 
       91 xi14.xcmp3.xdff.xi14.xi2.xn1.   nmos_b             1.00 
       92 xi14.xcmp3.xdff.xi14.xi1.xp1.   pmos_b             1.00 
       93 xi14.xcmp3.xdff.xi14.xi1.xn1.   nmos_b             1.00 
  **info** (bhv.sp:108) DC voltage reset to initial transient source value in source 0:vinn. new dc=0.0000D+00
  
  **warning** No connections on node iref_1; Node ignored.

  **warning** the following singular supplies were terminated to 1 meg resistor 
          supply       node1            node2
(bhv.sp:47)vdgnd                   0:dgnd             defined in subckt 0                     0:0                defined in subckt 0               
(bhv.sp:46)vdvdd                   0:dvdd             defined in subckt 0                     0:0                defined in subckt 0               
(bhv.sp:72)vp1dna                  0:p1d_b            defined in subckt 0                     0:0                defined in subckt 0               
(bhv.sp:74)vp2na                   0:p2_b             defined in subckt 0                     0:0                defined in subckt 0               
(bhv.sp:76)vp2dna                  0:p2d_b            defined in subckt 0                     0:0                defined in subckt 0               
(bhv.sp:97)vrst_b                  0:rst_b            defined in subckt 0                     0:0                defined in subckt 0               
(bhv.sp:99)vrst_m                  0:rst_matlab       defined in subckt 0                     0:0                defined in subckt 0               
(../et710/ece627_bhv_ckt.cir:65)e1                     14:vcmi             defined in subckt fdopb                 0:0                defined in subckt 0               
(../et710/ece627_bhv_ckt.cir:65)e1                     25:vcmi             defined in subckt fdopb                 0:0                defined in subckt 0               
      

Element variations(Local):   element              parameter
 *****************************************************************
 ******  option summary
 ******
 runlvl  = 3         bypass  = 2.0000    
             
 Summary of Linear Res Distribution Info
 ---------------------------------------
 |Range          |Total     |Percent(%)|
 |---------------+----------+----------|
 |1e+00  ~  1e+03|13        |7.7844    |
 |1e+03  ~  1e+05|2         |1.1976    |
 |1e+05  ~  1e+06|13        |7.7844    |
 |1e+08  ~  1e+09|2         |1.1976    |
 |1e+09  ~  1e+10|1         |0.5988    |
 |1e+11  ~  1e+12|136       |81.4371   |
 ---------------------------------------
              
             
 Summary of Linear Cap Distribution Info
 ---------------------------------------
 |Range          |Total     |Percent(%)|
 |---------------+----------+----------|
 |1e-17  ~  1e-16|68        |56.1983   |
 |1e-15  ~  1e-14|42        |34.7107   |
 |1e-14  ~  1e-13|11        |9.0909    |
 ---------------------------------------
              
             
 Summary of Detailed RC Type Statistics
 -----------------------------
 |Element Type    |Number    |
 |----------------+----------|
 |Constant Res    |158       |
 |Other Linear Res|9         |
 |                |          |
 |Constant Cap    |121       |
 -----------------------------
              
 **info** dc convergence successful at Newton-Raphson method 
 ******  
 *behavior simulation

 ****** operating point information tnom=  25.000 temp=  27.000 ******
 ****** operating point status is all       simulation time is     0.     
     node    =voltage       node    =voltage       node    =voltage

 + 0:agnd    =   0.       0:avdd    =   1.8000   0:dgnd    =   0.     
 + 0:dout    =   1.8000   0:dvdd    =   1.8000   0:inn     = 900.0000m
 + 0:inp     = 900.0000m  0:iref_1  =   0.       0:iref_2  =   0.     
 + 0:iref_3  =   0.       0:out_int1= 900.0000m  0:out_int1= 900.0000m
 + 0:out_int2= 900.0000m  0:out_int2= 900.0000m  0:p1      =   0.     
 + 0:p1_b    =   1.8000   0:p1d     =   0.       0:p1d_b   =   1.8000 
 + 0:p2      =   0.       0:p2_b    =   1.8000   0:p2d     =   0.     
 + 0:p2d_b   =   1.8000   0:pdn     =   0.       0:pvrefn  =  18.0000f
 + 0:pvrefn_b=   1.8000   0:pvrefp  =  18.0000f  0:pvrefp_b=   1.8000 
 + 0:rst     =   0.       0:rst_b   =   1.8000   0:rst_matl=   0.     
 + 0:vcm     = 900.0000m  0:vcm1    = 900.0000m  0:vrefn   =   0.     
 + 0:vrefp   =   1.8000   1:cinn    = 449.7751u  1:cinp    = 449.7751u
 + 1:dacn    = 899.1009u  1:dacp    = 899.1009u  1:opin    = 449.7751u
 + 1:opip    = 449.7751u  2:cinn    = 449.7751u  2:cinp    = 449.7751u
 + 2:dacn    = 899.1009u  2:dacp    = 899.1009u  2:opin    = 449.7751u
 + 2:opip    = 449.7751u  3:amp_n   = 900.0000m  3:amp_p   = 900.0000m
 + 3:d_b     =  18.0000f  3:net0107 = 899.1009u  3:net0137 = 899.1009u
 + 3:net0155 = 899.1009u  3:net0161 = 899.1009u  3:net082  = 899.1009u
 + 3:net088  = 899.1009u  3:opin    = 899.1009u  3:opip    = 899.1009u
 + 4:d_b     =  18.0000f  4:net43   =   1.8000   4:net48   =   1.8000 
 +14:vcmi    = 900.0000m 25:vcmi    = 900.0000m 26:on1     =   0.     
 +26:op1     =   0.      26:vcm1    = 900.0000m 27:net22   = 1.800e-27
 +28:net23   =   1.8000  43:net23   =   1.8000  44:net23   =  18.0000f
 +45:net23   =  18.0000f 46:net23   =  18.0000f 47:net23   =   1.8000 
 +48:net8    = 899.1009u 49:net8    =   1.8000  54:net275  =  18.0000f
 +55:vout1   =   0.      76:net017  =   1.8000  76:net22   =  18.0000f
 +76:net8    =   1.8000  77:net017  =   1.8000  77:net22   =  18.0000f
 +77:net8    =   1.8000  78:net23   =  18.0000f 79:net23   =   1.8000 
 +82:net23   =  18.0000f 83:net23   =   1.8000 


 **** voltage sources

 subckt                                                              
 element   0:v_refn    0:v_refp    0:v_vcm     0:vagnd     0:vavdd   
  volts       0.          1.8000    900.0000m     0.          1.8000 
  current     1.7982a    -3.6036p   -10.8108p    19.8009f   -57.6213p
  power       0.          6.4865p     9.7297p     0.        103.7183p

 subckt                                                              
 element   0:vdgnd     0:vdvdd     0:vinn      0:vinp      0:vp1a    
  volts       0.          1.8000     55.2400a     0.          0.     
  current     0.         -1.8000u    -1.8018p    -1.8018p     0.     
  power       0.          3.2400u     0.          0.          0.     

 subckt                                                              
 element   0:vp1da     0:vp1dna    0:vp1na     0:vp2a      0:vp2da   
  volts       0.          1.8000      1.8000      0.          0.     
  current     0.         -1.8000u     0.          0.          0.     
  power       0.          3.2400u     0.          0.          0.     

 subckt                                                              
 element   0:vp2dna    0:vp2na     0:vrst      0:vrst_b    0:vrst_m  
  volts       1.8000      1.8000      0.          1.8000      0.     
  current    -1.8000u    -1.8000u     0.         -1.8000u     0.     
  power       3.2400u     3.2400u     0.          3.2400u     0.     

     total voltage source power dissipation=   16.2001u       watts



 **** resistors

 subckt    xi16.xsw3   xi16.xsw3   xi16.xsw7   xi16.xsw7   xi16.xswin
 element   6:r1        6:r2        7:r1        7:r2        8:r1      
  r value   1.000e+12   1.000e+12   1.000e+12   1.000e+12   1.000e+12
  v drop    900.0000m   449.7751u   900.0000m   449.7751u   900.0000m
  current   900.0000f   449.7751a   900.0000f   449.7751a   900.0000f
  power     810.0000f   2.023e-19   810.0000f   2.023e-19   810.0000f

 subckt    xi16.xswin  xi16.xsw2   xi16.xsw2   xi16.xsw6   xi16.xsw6 
 element   8:r2        9:r1        9:r2       10:r1       10:r2      
  r value   1.000e+12   1.000e+12   1.000e+12   1.000e+12   1.000e+12
  v drop    899.1009u   449.7751u   449.7751u   449.7751u   449.7751u
  current   899.1009a   449.7751a   449.7751a   449.7751a   449.7751a
  power     8.084e-19   2.023e-19   2.023e-19   2.023e-19   2.023e-19

 subckt    xi16.xi12   xi16.xi12   xi16.xi13   xi16.xi13   xi16.xswin
 element  11:r1       11:r2       12:r1       12:r2       13:r1      
  r value   1.000e+12   1.000e+12   1.000e+12   1.000e+12   1.000e+12
  v drop    900.0000m   449.7751u   900.0000m   449.7751u   900.0000m
  current   900.0000f   449.7751a   900.0000f   449.7751a   900.0000f
  power     810.0000f   2.023e-19   810.0000f   2.023e-19   810.0000f

 subckt    xi16.xswin  xi15.xi65   xi15.xi65   xi15.xsw7   xi15.xsw7 
 element  13:r2       15:r1       15:r2       16:r1       16:r2      
  r value   1.000e+12   1.000e+12   1.000e+12   1.000e+12   1.000e+12
  v drop    899.1009u   900.0000m   899.1009u   900.0000m   449.7751u
  current   899.1009a   900.0000f   899.1009a   900.0000f   449.7751a
  power     8.084e-19   810.0000f   8.084e-19   810.0000f   2.023e-19

 subckt    xi15.xsw3   xi15.xsw3   xi15.xswin  xi15.xswin  xi15.xswin
 element  17:r1       17:r2       18:r1       18:r2       19:r1      
  r value   1.000e+12   1.000e+12   1.000e+12   1.000e+12   1.000e+12
  v drop    900.0000m   449.7751u   900.0000m   899.1009u   900.0000m
  current   900.0000f   449.7751a   900.0000f   899.1009a   900.0000f
  power     810.0000f   2.023e-19   810.0000f   8.084e-19   810.0000f

 subckt    xi15.xswin  xi15.xsw2   xi15.xsw2   xi15.xsw6   xi15.xsw6 
 element  19:r2       20:r1       20:r2       21:r1       21:r2      
  r value   1.000e+12   1.000e+12   1.000e+12   1.000e+12   1.000e+12
  v drop    899.1009u   449.7751u   449.7751u   449.7751u   449.7751u
  current   899.1009a   449.7751a   449.7751a   449.7751a   449.7751a
  power     8.084e-19   2.023e-19   2.023e-19   2.023e-19   2.023e-19

 subckt    xi15.xi6    xi15.xi6    xi15.xi9    xi15.xi9    xi15.xi66 
 element  22:r1       22:r2       23:r1       23:r2       24:r1      
  r value   1.000e+12   1.000e+12   1.000e+12   1.000e+12   1.000e+12
  v drop    900.0000m   449.7751u   900.0000m   449.7751u   900.0000m
  current   900.0000f   449.7751a   900.0000f   449.7751a   900.0000f
  power     810.0000f   2.023e-19   810.0000f   2.023e-19   810.0000f

 subckt    xi15.xi66   xi14.xprea  xi14.xprea  xi14.xprea  xi14.xi1  
 element  24:r2       26:rin      26:ron      26:rop      28:r1      
  r value   1.000e+12    10.0000g     4.0000k     4.0000k    10.0000 
  v drop    899.1009u     0.          0.          0.          0.     
  current   899.1009a     0.          0.          0.          0.     
  power     8.084e-19     0.          0.          0.          0.     

 subckt    xi14.xi52   xi14.xi52   xi14.xi63   xi14.xi63   xi14.xi62 
 element  29:r1       29:r2       30:r1       30:r2       31:r1      
  r value   1.000e+12   1.000e+12   1.000e+12   1.000e+12   1.000e+12
  v drop    900.0000m   899.1009u   900.0000m   899.1009u   900.0000m
  current   900.0000f   899.1009a   900.0000f   899.1009a   900.0000f
  power     810.0000f   8.084e-19   810.0000f   8.084e-19   810.0000f

 subckt    xi14.xi62   xi14.xi55   xi14.xi55   xi14.xi56   xi14.xi56 
 element  31:r2       32:r1       32:r2       33:r1       33:r2      
  r value   1.000e+12   1.000e+12   1.000e+12   1.000e+12   1.000e+12
  v drop    899.1009u   900.0000m   899.1009u   900.0000m   899.1009u
  current   899.1009a   900.0000f   899.1009a   900.0000f   899.1009a
  power     8.084e-19   810.0000f   8.084e-19   810.0000f   8.084e-19

 subckt    xi14.xi65   xi14.xi65   xi14.xi64   xi14.xi64   xi14.xi60 
 element  34:r1       34:r2       35:r1       35:r2       36:r1      
  r value   1.000e+12   1.000e+12   1.000e+12   1.000e+12   1.000e+12
  v drop    900.0000m   899.1009u   900.0000m   899.1009u   900.0000m
  current   900.0000f   899.1009a   900.0000f   899.1009a   900.0000f
  power     810.0000f   8.084e-19   810.0000f   8.084e-19   810.0000f

 subckt    xi14.xi60   xi14.xi59   xi14.xi59   xi14.xi13   xi14.xi13 
 element  36:r2       37:r1       37:r2       38:r1       38:r2      
  r value   1.000e+12   1.000e+12   1.000e+12   1.000e+12   1.000e+12
  v drop    899.1009u   900.0000m   899.1009u   900.0000m   899.1009u
  current   899.1009a   900.0000f   899.1009a   900.0000f   899.1009a
  power     8.084e-19   810.0000f   8.084e-19   810.0000f   8.084e-19

 subckt    xi14.xi9    xi14.xi9    xi14.xsw1   xi14.xsw1   xi14.xi2  
 element  39:r1       39:r2       40:r1       40:r2       41:r1      
  r value   1.000e+12   1.000e+12   1.000e+12   1.000e+12   1.000e+12
  v drop    900.0000m   899.1009u   900.0000m   899.1009u   900.0000m
  current   900.0000f   899.1009a   900.0000f   899.1009a   900.0000f
  power     810.0000f   8.084e-19   810.0000f   8.084e-19   810.0000f

 subckt    xi14.xi2    xi14.xsw4   xi14.xsw4   xclk_fb.xi  xclk_fb.xi
 element  41:r2       42:r1       42:r2       43:r1       44:r1      
  r value   1.000e+12   1.000e+12   1.000e+12    10.0000     10.0000 
  v drop    899.1009u   900.0000m   899.1009u     0.          0.     
  current   899.1009a   900.0000f   899.1009a     0.          0.     
  power     8.084e-19   810.0000f   8.084e-19     0.          0.     

 subckt    xclk_fb.xi  xclk_fb.xi  xclk_fb.xi  xi16.xdac.  xi16.xdac.
 element  45:r1       46:r1       47:r1       50:r1       50:r2      
  r value    10.0000     10.0000     10.0000    1.000e+12   1.000e+12
  v drop      0.          0.          0.          0.        899.1009u
  current     0.          0.          0.          0.        899.1009a
  power       0.          0.          0.          0.        8.084e-19

 subckt    xi16.xdac.  xi16.xdac.  xi16.xdac.  xi16.xdac.  xi16.xdac.
 element  51:r1       51:r2       52:r1       52:r2       53:r1      
  r value   1.000e+12   1.000e+12   1.000e+12   1.000e+12   1.000e+12
  v drop      1.8000    899.1009u     1.8000    899.1009u     0.     
  current     1.8000p   899.1009a     1.8000p   899.1009a     0.     
  power       3.2400p   8.084e-19     3.2400p   8.084e-19     0.     

 subckt    xi16.xdac.  xi14.xcmp3  xi14.xcmp3  xi14.xcmp3  xi14.xi1.x
 element  53:r2       55:rinp     55:rinn     55:rvout    56:r1      
  r value   1.000e+12     1.0000g     1.0000g   100.0000    1.000e+12
  v drop    899.1009u   900.0000m   900.0000m  -1.800e-27     1.8000 
  current   899.1009a   900.0000p   900.0000p     0.          1.8000p
  power     8.084e-19   810.0000p   810.0000p     0.          3.2400p

 subckt    xi14.xi1.x  xi14.xi1.x  xi14.xi1.x  xclk_fb.xi  xclk_fb.xi
 element  56:r2       57:r1       57:r2       58:r1       58:r2      
  r value   1.000e+12   1.000e+12   1.000e+12   1.000e+12   1.000e+12
  v drop      1.8000      1.8000      0.          1.8000      1.8000 
  current     1.8000p     1.8000p     0.          1.8000p     1.8000p
  power       3.2400p     3.2400p     0.          3.2400p     3.2400p

 subckt    xclk_fb.xi  xclk_fb.xi  xclk_fb.xi  xclk_fb.xi  xclk_fb.xi
 element  59:r1       59:r2       60:r1       60:r2       61:r1      
  r value   1.000e+12   1.000e+12   1.000e+12   1.000e+12   1.000e+12
  v drop      1.8000      0.         18.0000f     1.8000     18.0000f
  current     1.8000p     0.        1.800e-26     1.8000p   1.800e-26
  power       3.2400p     0.          0.          3.2400p     0.     

 subckt    xclk_fb.xi  xclk_fb.xi  xclk_fb.xi  xclk_fb.xi  xclk_fb.xi
 element  61:r2       62:r1       62:r2       63:r1       63:r2      
  r value   1.000e+12   1.000e+12   1.000e+12   1.000e+12   1.000e+12
  v drop      0.         18.0000f     1.8000     18.0000f     0.     
  current     0.        1.800e-26     1.8000p   1.800e-26     0.     
  power       0.          0.          3.2400p     0.          0.     

 subckt    xclk_fb.xi  xclk_fb.xi  xclk_fb.xi  xclk_fb.xi  xclk_fb.xi
 element  64:r1       64:r2       65:r1       65:r2       66:r1      
  r value   1.000e+12   1.000e+12   1.000e+12   1.000e+12   1.000e+12
  v drop     18.0000f     1.8000     18.0000f     0.          1.8000 
  current   1.800e-26     1.8000p   1.800e-26     0.          1.8000p
  power       0.          3.2400p     0.          0.          3.2400p

 subckt    xclk_fb.xi  xclk_fb.xi  xclk_fb.xi  xclk_fb.xi  xclk_fb.xi
 element  66:r2       67:r1       67:r2       68:r1       68:r2      
  r value   1.000e+12   1.000e+12   1.000e+12   1.000e+12   1.000e+12
  v drop      1.8000      1.8000      0.          1.8000    899.1009u
  current     1.8000p     1.8000p     0.          1.8000p   899.1009a
  power       3.2400p     3.2400p     0.          3.2400p   8.084e-19

 subckt    xclk_fb.xi  xclk_fb.xi  xclk_fb.xi  xclk_fb.xi  xclk_fb.xi
 element  69:r1       69:r2       70:r1       70:r2       71:r1      
  r value   1.000e+12   1.000e+12   1.000e+12   1.000e+12   1.000e+12
  v drop    899.1009u     0.          1.8000      1.8000      1.8000 
  current   899.1009a     0.          1.8000p     1.8000p     1.8000p
  power     8.084e-19     0.          3.2400p     3.2400p     3.2400p

 subckt    xclk_fb.xi  xclk_fb.xi  xclk_fb.xi  xclk_fb.xi  xclk_fb.xi
 element  71:r2       72:r1       72:r2       73:r1       73:r2      
  r value   1.000e+12   1.000e+12   1.000e+12   1.000e+12   1.000e+12
  v drop      1.8000      1.8000      1.8000      1.8000      0.     
  current     1.8000p     1.8000p     1.8000p     1.8000p     0.     
  power       3.2400p     3.2400p     3.2400p     3.2400p     0.     

 subckt    xclk_fb.xi  xclk_fb.xi  xclk_fb.xi  xclk_fb.xi  xi14.xcmp3
 element  74:r1       74:r2       75:r1       75:r2       76:r1      
  r value   1.000e+12   1.000e+12   1.000e+12   1.000e+12     2.0000 
  v drop      1.8000      1.8000      1.8000      1.8000      0.     
  current     1.8000p     1.8000p     1.8000p     1.8000p     0.     
  power       3.2400p     3.2400p     3.2400p     3.2400p     0.     

 subckt    xi14.xcmp3  xi14.xcmp3  xi14.xcmp3  xi14.xcmp3  xi14.xcmp3
 element  77:r1       78:r1       79:r1       80:r1       80:r2      
  r value     2.0000     10.0000     10.0000    1.000e+12   1.000e+12
  v drop      0.       -1.103e-24  -666.1338a   1.800e-27    18.0000f
  current     0.       -1.103e-25   -66.6134a     0.        1.800e-26
  power       0.          0.          0.          0.          0.     

 subckt    xi14.xcmp3  xi14.xcmp3  xi14.xcmp3  xi14.xcmp3  xi14.xcmp3
 element  81:r1       81:r2       82:r1       83:r1       84:r1      
  r value   1.000e+12   1.000e+12    10.0000     10.0000    1.000e+12
  v drop     18.0000f    18.0000f   1.800e-25  -666.1338a    18.0000f
  current   1.800e-26   1.800e-26   1.800e-26   -66.6134a   1.800e-26
  power       0.          0.          0.          0.          0.     

 subckt    xi14.xcmp3  xi14.xcmp3  xi14.xcmp3  xi14.xcmp3  xi14.xcmp3
 element  84:r2       85:r1       85:r2       86:r1       86:r2      
  r value   1.000e+12   1.000e+12   1.000e+12   1.000e+12   1.000e+12
  v drop     18.0000f    18.0000f    18.0000f    18.0000f     1.8000 
  current   1.800e-26   1.800e-26   1.800e-26   1.800e-26     1.8000p
  power       0.          0.          0.          0.          3.2400p

 subckt    xi14.xcmp3  xi14.xcmp3  xi14.xcmp3  xi14.xcmp3  xi14.xcmp3
 element  87:r1       87:r2       88:r1       88:r2       89:r1      
  r value   1.000e+12   1.000e+12   1.000e+12   1.000e+12   1.000e+12
  v drop     18.0000f     0.          1.8000      1.8000      1.8000 
  current   1.800e-26     0.          1.8000p     1.8000p     1.8000p
  power       0.          0.          3.2400p     3.2400p     3.2400p

 subckt    xi14.xcmp3  xi14.xcmp3  xi14.xcmp3  xi14.xcmp3  xi14.xcmp3
 element  89:r2       90:r1       90:r2       91:r1       91:r2      
  r value   1.000e+12   1.000e+12   1.000e+12   1.000e+12   1.000e+12
  v drop      0.         18.0000f     1.8000     18.0000f     0.     
  current     0.        1.800e-26     1.8000p   1.800e-26     0.     
  power       0.          0.          3.2400p     0.          0.     

 subckt    xi14.xcmp3  xi14.xcmp3  xi14.xcmp3  xi14.xcmp3
 element  92:r1       92:r2       93:r1       93:r2      
  r value   1.000e+12   1.000e+12   1.000e+12   1.000e+12
  v drop      1.8000      1.8000      1.8000      0.     
  current     1.8000p     1.8000p     1.8000p     0.     
  power       3.2400p     3.2400p     3.2400p     0.     


 **** voltage-controlled current sources


 subckt      xi14.xpr    xi14.xpr
 element  26:gin      26:gip     
  v drop      0.          0.     
  current     0.          0.     




 **** voltage-controlled resistors


 subckt      xi16.xsw    xi16.xsw    xi16.xsw    xi16.xsw    xi16.xsw
 element   6:g1        7:g1        8:g1        9:g1       10:g1      
  r value   1.000e+15   1.000e+15   1.000e+15   1.000e+15   1.000e+15



 subckt      xi16.xi1    xi16.xi1    xi16.xsw    xi15.xi6    xi15.xsw
 element  11:g1       12:g1       13:g1       15:g1       16:g1      
  r value   1.000e+15   1.000e+15   1.000e+15   1.000e+15   1.000e+15



 subckt      xi15.xsw    xi15.xsw    xi15.xsw    xi15.xsw    xi15.xsw
 element  17:g1       18:g1       19:g1       20:g1       21:g1      
  r value   1.000e+15   1.000e+15   1.000e+15   1.000e+15   1.000e+15



 subckt      xi15.xi6    xi15.xi9    xi15.xi6    xi14.xi5    xi14.xi6
 element  22:g1       23:g1       24:g1       29:g1       30:g1      
  r value   1.000e+15   1.000e+15   1.000e+15   1.000e+15   1.000e+15



 subckt      xi14.xi6    xi14.xi5    xi14.xi5    xi14.xi6    xi14.xi6
 element  31:g1       32:g1       33:g1       34:g1       35:g1      
  r value   1.000e+15   1.000e+15   1.000e+15   1.000e+15   1.000e+15



 subckt      xi14.xi6    xi14.xi5    xi14.xi1    xi14.xi9    xi14.xsw
 element  36:g1       37:g1       38:g1       39:g1       40:g1      
  r value   1.000e+15   1.000e+15   1.000e+15   1.000e+15   1.000e+15



 subckt      xi14.xi2    xi14.xsw    xi16.xda    xi16.xda    xi16.xda
 element  41:g1       42:g1       50:g1       51:g1       52:g1      
  r value   1.000e+15   1.000e+15   1.000e+15   1.000e+15   1.000e+15



 subckt      xi16.xda    xi14.xi1    xi14.xi1    xclk_fb.    xclk_fb.
 element  53:g1       56:g1       57:g1       58:g1       59:g1      
  r value   1.000e+15    10.0000    1.000e+15    10.0000    1.000e+15



 subckt      xclk_fb.    xclk_fb.    xclk_fb.    xclk_fb.    xclk_fb.
 element  60:g1       61:g1       62:g1       63:g1       64:g1      
  r value   1.000e+15    10.0000    1.000e+15    10.0000    1.000e+15



 subckt      xclk_fb.    xclk_fb.    xclk_fb.    xclk_fb.    xclk_fb.
 element  65:g1       66:g1       67:g1       68:g1       69:g1      
  r value    10.0000     10.0000    1.000e+15   1.000e+15   1.000e+15



 subckt      xclk_fb.    xclk_fb.    xclk_fb.    xclk_fb.    xclk_fb.
 element  70:g1       71:g1       72:g1       73:g1       74:g1      
  r value    10.0000     10.0000     10.0000    1.000e+15    10.0000 



 subckt      xclk_fb.    xi14.xcm    xi14.xcm    xi14.xcm    xi14.xcm
 element  75:g1       80:g1       81:g1       84:g1       85:g1      
  r value   1.000e+15   1.000e+15    10.0000     10.0000    1.000e+15



 subckt      xi14.xcm    xi14.xcm    xi14.xcm    xi14.xcm    xi14.xcm
 element  86:g1       87:g1       88:g1       89:g1       90:g1      
  r value   1.000e+15    10.0000     10.0000    1.000e+15   1.000e+15



 subckt      xi14.xcm    xi14.xcm    xi14.xcm
 element  91:g1       92:g1       93:g1      
  r value    10.0000     10.0000    1.000e+15




 **** voltage-controlled voltage sources


 subckt                  xi16.xop    xi16.xop    xi16.xop    xi15.xop
 element   0:evcm1    14:e1       14:ep       14:en       25:e1      
  volts     900.0000m   900.0000m   900.0000m   900.0000m   900.0000m
  current    -3.6036p  -900.0000n    -2.7027p    -2.7027p  -900.0000n



 subckt      xi15.xop    xi15.xop    xi14.xpr    xi14.xpr    xi14.xpr
 element  25:ep       25:en       26:eon      26:eop      26:evcmo   
  volts     900.0000m   900.0000m     0.          0.        900.0000m
  current    -1.8018p    -1.8018p  -900.9009p  -900.9009p    -1.8018n



 subckt      xi14.xcm
 element  55:evcvs   
  volts       0.     
  current     0.     




          ***** job concluded
 ******  
 *behavior simulation

 ****** job statistics summary tnom=  25.000 temp=  27.000 ******
  
 ******  Machine Information  ******
 CPU:
 model name	: Intel(R) Xeon(R) Silver 4110 CPU @ 2.10GHz
 cpu MHz	: 2100.000
  
 OS:
 Linux version 3.10.0-957.el7.x86_64 (mockbuild@kbuilder.bsys.centos.org) (gcc version 4.8.5 20150623 (Red Hat 4.8.5-36) (GCC) ) #1 SMP Thu Nov 8 23:39:32 UTC 2018


  ******  HSPICE Threads Information  ******

  Command Line Threads Count :     1
  Available CPU Count        :    32
  Actual Threads Count       :     1


  ******  Circuit Statistics  ******
  # nodes       =      87 # elements   =     389
  # resistors   =     167 # capacitors =     121 # inductors   =       0
  # mutual_inds =       0 # vccs       =      70 # vcvs        =      11
  # cccs        =       0 # ccvs       =       0 # volt_srcs   =      20
  # curr_srcs   =       0 # diodes     =       0 # bjts        =       0
  # jfets       =       0 # mosfets    =       0 # U elements  =       0
  # T elements  =       0 # W elements =       0 # B elements  =       0
  # S elements  =       0 # P elements =       0 # va device   =       0
  # vector_srcs =       0 # N elements =       0


  ******  Runtime Statistics (seconds)  ******

  analysis           time    # points   tot. iter  conv.iter
  op point           0.00           1           8
  transient        587.79       51201    18631785     5790327 rev=    391593
  readin             0.03
  errchk             0.00
  setup              0.00
  output             0.00


           peak memory used        322.61 megabytes
           total cpu time          587.83 seconds
           total elapsed time      604.58 seconds
           job started at     17:10:56 07/17/2019
           job ended   at     17:21:00 07/17/2019



>info:         ***** hspice job concluded
 lic: Release hspice token(s) 
 lic: total license checkout elapse time:        0.29(s)
