Using: /usr/cad/synopsys/hspice/cur/hspice/linux64/hspice bhv.sp
 ****** HSPICE -- O-2018.09 linux64 (Aug 26 2018) ******                        
  Copyright (c) 1986 - 2019 by Synopsys, Inc. All Rights Reserved.              
  This software and the associated documentation are proprietary
  to Synopsys, Inc. This software may only be used in accordance
  with the terms and conditions of a written license agreement with
  Synopsys, Inc. All other use, reproduction, or distribution of
  this software is strictly prohibited.
  Input File: bhv.sp                                                            
  Command line options: /usr/cad/synopsys/hspice/cur/hspice/linux64/hspice bhv.sp
 lic:  
 lic: FLEXlm: SDK_11.6.9.6 
 lic: USER:   ychuang              HOSTNAME: adc 
 lic: HOSTID: "b026281535a3"       PID:      4456 
 lic: Using FLEXlm license file: 
 lic: 26585@lsnctu 
 lic: Checkout 1 hspice 
 lic: License/Maintenance for hspice will expire on 14-may-2022/2018.09 
 lic: 119(in_use)/190(total) FLOATING license(s) on SERVER 26585@lsnctu 
 lic:   
  **warning** (bhv.sp:115) Unrecognized output type for xsar.v in .print or .probe; The line is ignored.
1****** HSPICE -- O-2018.09 linux64 (Aug 26 2018) ******                        
 ******  
 *behavior simulation

 ****** circuit name directory
 circuit number to circuit name directory
   number circuitname                     definition         multiplier
        0 main circuit
        1 xdlatch_0.                      dlatch             1.00 
        2 xdlatch_1.                      dlatch             1.00 
        3 xdlatch_2.                      dlatch             1.00 
        4 xdlatch_3.                      dlatch             1.00 
        5 xdlatch_4.                      dlatch             1.00 
        6 xdlatch_5.                      dlatch             1.00 
        7 xdlatch_6.                      dlatch             1.00 
        8 xdlatch_7.                      dlatch             1.00 
        9 xnot1.                          inv_bhv            1.00 
       10 xnot2.                          inv_bhv            1.00 
       11 xnand1.                         nand2_bhv          1.00 
       12 xnand2.                         nand2_bhv          1.00 
       13 xsar.                           adc_sar_diff_8bit_v4_monotonic
                                                                 1.00 
       14 xds.                            adc_mod2_bit1_ff   1.00 
       15 xdlatch_0.xi2.                  inv_bhv            1.00 
       16 xdlatch_0.xi1.                  inv_bhv            1.00 
       17 xdlatch_0.xi29.                 tgb                1.00 
       18 xdlatch_0.xsw1.                 tgb                1.00 
       19 xdlatch_1.xi2.                  inv_bhv            1.00 
       20 xdlatch_1.xi1.                  inv_bhv            1.00 
       21 xdlatch_1.xi29.                 tgb                1.00 
       22 xdlatch_1.xsw1.                 tgb                1.00 
       23 xdlatch_2.xi2.                  inv_bhv            1.00 
       24 xdlatch_2.xi1.                  inv_bhv            1.00 
       25 xdlatch_2.xi29.                 tgb                1.00 
       26 xdlatch_2.xsw1.                 tgb                1.00 
       27 xdlatch_3.xi2.                  inv_bhv            1.00 
       28 xdlatch_3.xi1.                  inv_bhv            1.00 
       29 xdlatch_3.xi29.                 tgb                1.00 
       30 xdlatch_3.xsw1.                 tgb                1.00 
       31 xdlatch_4.xi2.                  inv_bhv            1.00 
       32 xdlatch_4.xi1.                  inv_bhv            1.00 
       33 xdlatch_4.xi29.                 tgb                1.00 
       34 xdlatch_4.xsw1.                 tgb                1.00 
       35 xdlatch_5.xi2.                  inv_bhv            1.00 
       36 xdlatch_5.xi1.                  inv_bhv            1.00 
       37 xdlatch_5.xi29.                 tgb                1.00 
       38 xdlatch_5.xsw1.                 tgb                1.00 
       39 xdlatch_6.xi2.                  inv_bhv            1.00 
       40 xdlatch_6.xi1.                  inv_bhv            1.00 
       41 xdlatch_6.xi29.                 tgb                1.00 
       42 xdlatch_6.xsw1.                 tgb                1.00 
       43 xdlatch_7.xi2.                  inv_bhv            1.00 
       44 xdlatch_7.xi1.                  inv_bhv            1.00 
       45 xdlatch_7.xi29.                 tgb                1.00 
       46 xdlatch_7.xsw1.                 tgb                1.00 
       47 xnot1.xp1.                      pmos_b             1.00 
       48 xnot1.xn1.                      nmos_b             1.00 
       49 xnot2.xp1.                      pmos_b             1.00 
       50 xnot2.xn1.                      nmos_b             1.00 
       51 xnand1.xn1.                     nmos_b             1.00 
       52 xnand1.xi9.                     nmos_b             1.00 
       53 xnand1.xp1.                     pmos_b             1.00 
       54 xnand1.xi10.                    pmos_b             1.00 
       55 xnand2.xn1.                     nmos_b             1.00 
       56 xnand2.xi9.                     nmos_b             1.00 
       57 xnand2.xp1.                     pmos_b             1.00 
       58 xnand2.xi10.                    pmos_b             1.00 
       59 xsar.xcmp.                      vcvs_cmp           1.00 
       60 xsar.xc_array_p.                sa_8bit_c_array_with_dac_monotonic
                                                                 1.00 
       61 xsar.xc_array_n.                sa_8bit_c_array_with_dac_monotonic
                                                                 1.00 
       62 xsar.xsa_logic.                 sa_logic_8bit_monotonic
                                                                 1.00 
       63 xsar.xdffout_7.                 dff_set_rst_schematic
                                                                 1.00 
       64 xsar.xdffout_6.                 dff_set_rst_schematic
                                                                 1.00 
       65 xsar.xdffout_5.                 dff_set_rst_schematic
                                                                 1.00 
       66 xsar.xdffout_4.                 dff_set_rst_schematic
                                                                 1.00 
       67 xsar.xdffout_3.                 dff_set_rst_schematic
                                                                 1.00 
       68 xsar.xdffout_2.                 dff_set_rst_schematic
                                                                 1.00 
       69 xsar.xdffout_1.                 dff_set_rst_schematic
                                                                 1.00 
       70 xsar.xdffout_0.                 dff_set_rst_schematic
                                                                 1.00 
       71 xsar.xi7.                       nand2_bhv          1.00 
       72 xsar.xi28.                      inv_bhv            1.00 
       73 xsar.xi6.                       inv_bhv            1.00 
       74 xsar.xi5.                       inv_bhv            1.00 
       75 xds.xint1.                      int1_g103_with_1b_dac
                                                                 1.00 
       76 xds.xint2.                      int2               1.00 
       77 xds.xquantizer.                 adder_cmp_1b_ciff2
                                                                 1.00 
       78 xds.xclk_fb.                    clk_fb_1bit        1.00 
       79 xdlatch_0.xi2.xp1.              pmos_b             1.00 
       80 xdlatch_0.xi2.xn1.              nmos_b             1.00 
       81 xdlatch_0.xi1.xp1.              pmos_b             1.00 
       82 xdlatch_0.xi1.xn1.              nmos_b             1.00 
       83 xdlatch_1.xi2.xp1.              pmos_b             1.00 
       84 xdlatch_1.xi2.xn1.              nmos_b             1.00 
       85 xdlatch_1.xi1.xp1.              pmos_b             1.00 
       86 xdlatch_1.xi1.xn1.              nmos_b             1.00 
       87 xdlatch_2.xi2.xp1.              pmos_b             1.00 
       88 xdlatch_2.xi2.xn1.              nmos_b             1.00 
       89 xdlatch_2.xi1.xp1.              pmos_b             1.00 
       90 xdlatch_2.xi1.xn1.              nmos_b             1.00 
       91 xdlatch_3.xi2.xp1.              pmos_b             1.00 
       92 xdlatch_3.xi2.xn1.              nmos_b             1.00 
       93 xdlatch_3.xi1.xp1.              pmos_b             1.00 
       94 xdlatch_3.xi1.xn1.              nmos_b             1.00 
       95 xdlatch_4.xi2.xp1.              pmos_b             1.00 
       96 xdlatch_4.xi2.xn1.              nmos_b             1.00 
       97 xdlatch_4.xi1.xp1.              pmos_b             1.00 
       98 xdlatch_4.xi1.xn1.              nmos_b             1.00 
       99 xdlatch_5.xi2.xp1.              pmos_b             1.00 
      100 xdlatch_5.xi2.xn1.              nmos_b             1.00 
      101 xdlatch_5.xi1.xp1.              pmos_b             1.00 
      102 xdlatch_5.xi1.xn1.              nmos_b             1.00 
      103 xdlatch_6.xi2.xp1.              pmos_b             1.00 
      104 xdlatch_6.xi2.xn1.              nmos_b             1.00 
      105 xdlatch_6.xi1.xp1.              pmos_b             1.00 
      106 xdlatch_6.xi1.xn1.              nmos_b             1.00 
      107 xdlatch_7.xi2.xp1.              pmos_b             1.00 
      108 xdlatch_7.xi2.xn1.              nmos_b             1.00 
      109 xdlatch_7.xi1.xp1.              pmos_b             1.00 
      110 xdlatch_7.xi1.xn1.              nmos_b             1.00 
      111 xsar.xc_array_p.xsa_dac.        sa_dac_8bit        1.00 
      112 xsar.xc_array_p.xswvcmp.        tgb                1.00 
      113 xsar.xc_array_n.xsa_dac.        sa_dac_8bit        1.00 
      114 xsar.xc_array_n.xswvcmp.        tgb                1.00 
      115 xsar.xsa_logic.xi36.            inv_bhv            1.00 
      116 xsar.xsa_logic.xi19.            nor2_bhv           1.00 
      117 xsar.xsa_logic.xi23.            nor2_bhv           1.00 
      118 xsar.xsa_logic.xi22.            nor2_bhv           1.00 
      119 xsar.xsa_logic.xi26.            nor2_bhv           1.00 
      120 xsar.xsa_logic.xi27.            nor2_bhv           1.00 
      121 xsar.xsa_logic.xi29.            nor2_bhv           1.00 
      122 xsar.xsa_logic.xi32.            nor2_bhv           1.00 
      123 xsar.xsa_logic.xi33.            nor2_bhv           1.00 
      124 xsar.xsa_logic.xi24.            nand2_bhv          1.00 
      125 xsar.xsa_logic.xi20.            nand2_bhv          1.00 
      126 xsar.xsa_logic.xi21.            nand2_bhv          1.00 
      127 xsar.xsa_logic.xi25.            nand2_bhv          1.00 
      128 xsar.xsa_logic.xi28.            nand2_bhv          1.00 
      129 xsar.xsa_logic.xi30.            nand2_bhv          1.00 
      130 xsar.xsa_logic.xi31.            nand2_bhv          1.00 
      131 xsar.xsa_logic.xi34.            nand2_bhv          1.00 
      132 xsar.xsa_logic.xdata3.          dff_set_rst        1.00 
      133 xsar.xsa_logic.xdata2.          dff_set_rst        1.00 
      134 xsar.xsa_logic.xdata1.          dff_set_rst        1.00 
      135 xsar.xsa_logic.xdata0.          dff_set_rst        1.00 
      136 xsar.xsa_logic.xdata5.          dff_set_rst        1.00 
      137 xsar.xsa_logic.xrsh0.           dff_set_rst        1.00 
      138 xsar.xsa_logic.xrsh3.           dff_set_rst        1.00 
      139 xsar.xsa_logic.xrsh2.           dff_set_rst        1.00 
      140 xsar.xsa_logic.xrsh1.           dff_set_rst        1.00 
      141 xsar.xsa_logic.xrsh4.           dff_set_rst        1.00 
      142 xsar.xsa_logic.xdata7.          dff_set_rst        1.00 
      143 xsar.xsa_logic.xrsh5.           dff_set_rst        1.00 
      144 xsar.xsa_logic.xdata6.          dff_set_rst        1.00 
      145 xsar.xsa_logic.xdata4.          dff_set_rst        1.00 
      146 xsar.xsa_logic.xrsh6.           dff_set_rst        1.00 
      147 xsar.xsa_logic.xrsh7.           dff_set_rst        1.00 
      148 xsar.xdffout_7.xi1.             inv_bhv            1.00 
      149 xsar.xdffout_7.xi40.            tgb                1.00 
      150 xsar.xdffout_7.xi34.            tgb                1.00 
      151 xsar.xdffout_7.xi41.            tgb                1.00 
      152 xsar.xdffout_7.xsw1.            tgb                1.00 
      153 xsar.xdffout_7.xi42.            nor2_bhv           1.00 
      154 xsar.xdffout_7.xi43.            nor2_bhv           1.00 
      155 xsar.xdffout_7.xi31.            nor2_bhv           1.00 
      156 xsar.xdffout_7.xi37.            nor2_bhv           1.00 
      157 xsar.xdffout_6.xi1.             inv_bhv            1.00 
      158 xsar.xdffout_6.xi40.            tgb                1.00 
      159 xsar.xdffout_6.xi34.            tgb                1.00 
      160 xsar.xdffout_6.xi41.            tgb                1.00 
      161 xsar.xdffout_6.xsw1.            tgb                1.00 
      162 xsar.xdffout_6.xi42.            nor2_bhv           1.00 
      163 xsar.xdffout_6.xi43.            nor2_bhv           1.00 
      164 xsar.xdffout_6.xi31.            nor2_bhv           1.00 
      165 xsar.xdffout_6.xi37.            nor2_bhv           1.00 
      166 xsar.xdffout_5.xi1.             inv_bhv            1.00 
      167 xsar.xdffout_5.xi40.            tgb                1.00 
      168 xsar.xdffout_5.xi34.            tgb                1.00 
      169 xsar.xdffout_5.xi41.            tgb                1.00 
      170 xsar.xdffout_5.xsw1.            tgb                1.00 
      171 xsar.xdffout_5.xi42.            nor2_bhv           1.00 
      172 xsar.xdffout_5.xi43.            nor2_bhv           1.00 
      173 xsar.xdffout_5.xi31.            nor2_bhv           1.00 
      174 xsar.xdffout_5.xi37.            nor2_bhv           1.00 
      175 xsar.xdffout_4.xi1.             inv_bhv            1.00 
      176 xsar.xdffout_4.xi40.            tgb                1.00 
      177 xsar.xdffout_4.xi34.            tgb                1.00 
      178 xsar.xdffout_4.xi41.            tgb                1.00 
      179 xsar.xdffout_4.xsw1.            tgb                1.00 
      180 xsar.xdffout_4.xi42.            nor2_bhv           1.00 
      181 xsar.xdffout_4.xi43.            nor2_bhv           1.00 
      182 xsar.xdffout_4.xi31.            nor2_bhv           1.00 
      183 xsar.xdffout_4.xi37.            nor2_bhv           1.00 
      184 xsar.xdffout_3.xi1.             inv_bhv            1.00 
      185 xsar.xdffout_3.xi40.            tgb                1.00 
      186 xsar.xdffout_3.xi34.            tgb                1.00 
      187 xsar.xdffout_3.xi41.            tgb                1.00 
      188 xsar.xdffout_3.xsw1.            tgb                1.00 
      189 xsar.xdffout_3.xi42.            nor2_bhv           1.00 
      190 xsar.xdffout_3.xi43.            nor2_bhv           1.00 
      191 xsar.xdffout_3.xi31.            nor2_bhv           1.00 
      192 xsar.xdffout_3.xi37.            nor2_bhv           1.00 
      193 xsar.xdffout_2.xi1.             inv_bhv            1.00 
      194 xsar.xdffout_2.xi40.            tgb                1.00 
      195 xsar.xdffout_2.xi34.            tgb                1.00 
      196 xsar.xdffout_2.xi41.            tgb                1.00 
      197 xsar.xdffout_2.xsw1.            tgb                1.00 
      198 xsar.xdffout_2.xi42.            nor2_bhv           1.00 
      199 xsar.xdffout_2.xi43.            nor2_bhv           1.00 
      200 xsar.xdffout_2.xi31.            nor2_bhv           1.00 
      201 xsar.xdffout_2.xi37.            nor2_bhv           1.00 
      202 xsar.xdffout_1.xi1.             inv_bhv            1.00 
      203 xsar.xdffout_1.xi40.            tgb                1.00 
      204 xsar.xdffout_1.xi34.            tgb                1.00 
      205 xsar.xdffout_1.xi41.            tgb                1.00 
      206 xsar.xdffout_1.xsw1.            tgb                1.00 
      207 xsar.xdffout_1.xi42.            nor2_bhv           1.00 
      208 xsar.xdffout_1.xi43.            nor2_bhv           1.00 
      209 xsar.xdffout_1.xi31.            nor2_bhv           1.00 
      210 xsar.xdffout_1.xi37.            nor2_bhv           1.00 
      211 xsar.xdffout_0.xi1.             inv_bhv            1.00 
      212 xsar.xdffout_0.xi40.            tgb                1.00 
      213 xsar.xdffout_0.xi34.            tgb                1.00 
      214 xsar.xdffout_0.xi41.            tgb                1.00 
      215 xsar.xdffout_0.xsw1.            tgb                1.00 
      216 xsar.xdffout_0.xi42.            nor2_bhv           1.00 
      217 xsar.xdffout_0.xi43.            nor2_bhv           1.00 
      218 xsar.xdffout_0.xi31.            nor2_bhv           1.00 
      219 xsar.xdffout_0.xi37.            nor2_bhv           1.00 
      220 xsar.xi7.xn1.                   nmos_b             1.00 
      221 xsar.xi7.xi9.                   nmos_b             1.00 
      222 xsar.xi7.xp1.                   pmos_b             1.00 
      223 xsar.xi7.xi10.                  pmos_b             1.00 
      224 xsar.xi28.xp1.                  pmos_b             1.00 
      225 xsar.xi28.xn1.                  nmos_b             1.00 
      226 xsar.xi6.xp1.                   pmos_b             1.00 
      227 xsar.xi6.xn1.                   nmos_b             1.00 
      228 xsar.xi5.xp1.                   pmos_b             1.00 
      229 xsar.xi5.xn1.                   nmos_b             1.00 
      230 xds.xint1.xdac.                 dac_int_1bit       1.00 
      231 xds.xint1.xsw3.                 tgb                1.00 
      232 xds.xint1.xsw7.                 tgb                1.00 
      233 xds.xint1.xswinn.               tgb                1.00 
      234 xds.xint1.xsw2.                 tgb                1.00 
      235 xds.xint1.xsw6.                 tgb                1.00 
      236 xds.xint1.xi12.                 tgb                1.00 
      237 xds.xint1.xi13.                 tgb                1.00 
      238 xds.xint1.xswinp.               tgb                1.00 
      239 xds.xint1.xop.                  fdopb              1.00 
      240 xds.xint2.xi65.                 tgb                1.00 
      241 xds.xint2.xsw7.                 tgb                1.00 
      242 xds.xint2.xsw3.                 tgb                1.00 
      243 xds.xint2.xswinn.               tgb                1.00 
      244 xds.xint2.xswinp.               tgb                1.00 
      245 xds.xint2.xsw2.                 tgb                1.00 
      246 xds.xint2.xsw6.                 tgb                1.00 
      247 xds.xint2.xi6.                  tgb                1.00 
      248 xds.xint2.xi9.                  tgb                1.00 
      249 xds.xint2.xi66.                 tgb                1.00 
      250 xds.xint2.xop.                  fdopb              1.00 
      251 xds.xquantizer.xpreamp_bhv.     preamp_cmp_b       1.00 
      252 xds.xquantizer.xcmp3.           cmp_clk            1.00 
      253 xds.xquantizer.xi1.             inv_bhv            1.00 
      254 xds.xquantizer.xi52.            tgb                1.00 
      255 xds.xquantizer.xi63.            tgb                1.00 
      256 xds.xquantizer.xi62.            tgb                1.00 
      257 xds.xquantizer.xi55.            tgb                1.00 
      258 xds.xquantizer.xi56.            tgb                1.00 
      259 xds.xquantizer.xi65.            tgb                1.00 
      260 xds.xquantizer.xi64.            tgb                1.00 
      261 xds.xquantizer.xi60.            tgb                1.00 
      262 xds.xquantizer.xi59.            tgb                1.00 
      263 xds.xquantizer.xi13.            tgb                1.00 
      264 xds.xquantizer.xi9.             tgb                1.00 
      265 xds.xquantizer.xsw1.            tgb                1.00 
      266 xds.xquantizer.xi2.             tgb                1.00 
      267 xds.xquantizer.xsw4.            tgb                1.00 
      268 xds.xclk_fb.xi64.               inv_bhv            1.00 
      269 xds.xclk_fb.xi20.               inv_bhv            1.00 
      270 xds.xclk_fb.xi60.               inv_bhv            1.00 
      271 xds.xclk_fb.xi59.               inv_bhv            1.00 
      272 xds.xclk_fb.xi63.               inv_bhv            1.00 
      273 xds.xclk_fb.xi62.               nand2_bhv          1.00 
      274 xds.xclk_fb.xi19.               nand2_bhv          1.00 
      275 xsar.xc_array_p.xsa_dac.xswdac_0.
                                            dac_sw             1.00 
      276 xsar.xc_array_p.xsa_dac.xswdac_1.
                                            dac_sw             1.00 
      277 xsar.xc_array_p.xsa_dac.xswdac_2.
                                            dac_sw             1.00 
      278 xsar.xc_array_p.xsa_dac.xswdac_3.
                                            dac_sw             1.00 
      279 xsar.xc_array_p.xsa_dac.xswdac_4.
                                            dac_sw             1.00 
      280 xsar.xc_array_p.xsa_dac.xswdac_5.
                                            dac_sw             1.00 
      281 xsar.xc_array_p.xsa_dac.xswdac_6.
                                            dac_sw             1.00 
      282 xsar.xc_array_p.xsa_dac.xswdac_7.
                                            dac_sw             1.00 
      283 xsar.xc_array_p.xsa_dac.xi1.    inv_bhv            1.00 
      284 xsar.xc_array_p.xsa_dac.xswdac00.
                                            tgb                1.00 
      285 xsar.xc_array_p.xsa_dac.xswvin. tgb                1.00 
      286 xsar.xc_array_n.xsa_dac.xswdac_0.
                                            dac_sw             1.00 
      287 xsar.xc_array_n.xsa_dac.xswdac_1.
                                            dac_sw             1.00 
      288 xsar.xc_array_n.xsa_dac.xswdac_2.
                                            dac_sw             1.00 
      289 xsar.xc_array_n.xsa_dac.xswdac_3.
                                            dac_sw             1.00 
      290 xsar.xc_array_n.xsa_dac.xswdac_4.
                                            dac_sw             1.00 
      291 xsar.xc_array_n.xsa_dac.xswdac_5.
                                            dac_sw             1.00 
      292 xsar.xc_array_n.xsa_dac.xswdac_6.
                                            dac_sw             1.00 
      293 xsar.xc_array_n.xsa_dac.xswdac_7.
                                            dac_sw             1.00 
      294 xsar.xc_array_n.xsa_dac.xi1.    inv_bhv            1.00 
      295 xsar.xc_array_n.xsa_dac.xswdac00.
                                            tgb                1.00 
      296 xsar.xc_array_n.xsa_dac.xswvin. tgb                1.00 
      297 xsar.xsa_logic.xi36.xp1.        pmos_b             1.00 
      298 xsar.xsa_logic.xi36.xn1.        nmos_b             1.00 
      299 xsar.xsa_logic.xi19.xn1.        nmos_b             1.00 
      300 xsar.xsa_logic.xi19.xi9.        nmos_b             1.00 
      301 xsar.xsa_logic.xi19.xp1.        pmos_b             1.00 
      302 xsar.xsa_logic.xi19.xi10.       pmos_b             1.00 
      303 xsar.xsa_logic.xi23.xn1.        nmos_b             1.00 
      304 xsar.xsa_logic.xi23.xi9.        nmos_b             1.00 
      305 xsar.xsa_logic.xi23.xp1.        pmos_b             1.00 
      306 xsar.xsa_logic.xi23.xi10.       pmos_b             1.00 
      307 xsar.xsa_logic.xi22.xn1.        nmos_b             1.00 
      308 xsar.xsa_logic.xi22.xi9.        nmos_b             1.00 
      309 xsar.xsa_logic.xi22.xp1.        pmos_b             1.00 
      310 xsar.xsa_logic.xi22.xi10.       pmos_b             1.00 
      311 xsar.xsa_logic.xi26.xn1.        nmos_b             1.00 
      312 xsar.xsa_logic.xi26.xi9.        nmos_b             1.00 
      313 xsar.xsa_logic.xi26.xp1.        pmos_b             1.00 
      314 xsar.xsa_logic.xi26.xi10.       pmos_b             1.00 
      315 xsar.xsa_logic.xi27.xn1.        nmos_b             1.00 
      316 xsar.xsa_logic.xi27.xi9.        nmos_b             1.00 
      317 xsar.xsa_logic.xi27.xp1.        pmos_b             1.00 
      318 xsar.xsa_logic.xi27.xi10.       pmos_b             1.00 
      319 xsar.xsa_logic.xi29.xn1.        nmos_b             1.00 
      320 xsar.xsa_logic.xi29.xi9.        nmos_b             1.00 
      321 xsar.xsa_logic.xi29.xp1.        pmos_b             1.00 
      322 xsar.xsa_logic.xi29.xi10.       pmos_b             1.00 
      323 xsar.xsa_logic.xi32.xn1.        nmos_b             1.00 
      324 xsar.xsa_logic.xi32.xi9.        nmos_b             1.00 
      325 xsar.xsa_logic.xi32.xp1.        pmos_b             1.00 
      326 xsar.xsa_logic.xi32.xi10.       pmos_b             1.00 
      327 xsar.xsa_logic.xi33.xn1.        nmos_b             1.00 
      328 xsar.xsa_logic.xi33.xi9.        nmos_b             1.00 
      329 xsar.xsa_logic.xi33.xp1.        pmos_b             1.00 
      330 xsar.xsa_logic.xi33.xi10.       pmos_b             1.00 
      331 xsar.xsa_logic.xi24.xn1.        nmos_b             1.00 
      332 xsar.xsa_logic.xi24.xi9.        nmos_b             1.00 
      333 xsar.xsa_logic.xi24.xp1.        pmos_b             1.00 
      334 xsar.xsa_logic.xi24.xi10.       pmos_b             1.00 
      335 xsar.xsa_logic.xi20.xn1.        nmos_b             1.00 
      336 xsar.xsa_logic.xi20.xi9.        nmos_b             1.00 
      337 xsar.xsa_logic.xi20.xp1.        pmos_b             1.00 
      338 xsar.xsa_logic.xi20.xi10.       pmos_b             1.00 
      339 xsar.xsa_logic.xi21.xn1.        nmos_b             1.00 
      340 xsar.xsa_logic.xi21.xi9.        nmos_b             1.00 
      341 xsar.xsa_logic.xi21.xp1.        pmos_b             1.00 
      342 xsar.xsa_logic.xi21.xi10.       pmos_b             1.00 
      343 xsar.xsa_logic.xi25.xn1.        nmos_b             1.00 
      344 xsar.xsa_logic.xi25.xi9.        nmos_b             1.00 
      345 xsar.xsa_logic.xi25.xp1.        pmos_b             1.00 
      346 xsar.xsa_logic.xi25.xi10.       pmos_b             1.00 
      347 xsar.xsa_logic.xi28.xn1.        nmos_b             1.00 
      348 xsar.xsa_logic.xi28.xi9.        nmos_b             1.00 
      349 xsar.xsa_logic.xi28.xp1.        pmos_b             1.00 
      350 xsar.xsa_logic.xi28.xi10.       pmos_b             1.00 
      351 xsar.xsa_logic.xi30.xn1.        nmos_b             1.00 
      352 xsar.xsa_logic.xi30.xi9.        nmos_b             1.00 
      353 xsar.xsa_logic.xi30.xp1.        pmos_b             1.00 
      354 xsar.xsa_logic.xi30.xi10.       pmos_b             1.00 
      355 xsar.xsa_logic.xi31.xn1.        nmos_b             1.00 
      356 xsar.xsa_logic.xi31.xi9.        nmos_b             1.00 
      357 xsar.xsa_logic.xi31.xp1.        pmos_b             1.00 
      358 xsar.xsa_logic.xi31.xi10.       pmos_b             1.00 
      359 xsar.xsa_logic.xi34.xn1.        nmos_b             1.00 
      360 xsar.xsa_logic.xi34.xi9.        nmos_b             1.00 
      361 xsar.xsa_logic.xi34.xp1.        pmos_b             1.00 
      362 xsar.xsa_logic.xi34.xi10.       pmos_b             1.00 
      363 xsar.xsa_logic.xdata3.xi1.      inv_bhv            1.00 
      364 xsar.xsa_logic.xdata3.xi40.     tgb                1.00 
      365 xsar.xsa_logic.xdata3.xi34.     tgb                1.00 
      366 xsar.xsa_logic.xdata3.xi41.     tgb                1.00 
      367 xsar.xsa_logic.xdata3.xsw1.     tgb                1.00 
      368 xsar.xsa_logic.xdata3.xi42.     nor2_bhv           1.00 
      369 xsar.xsa_logic.xdata3.xi43.     nor2_bhv           1.00 
      370 xsar.xsa_logic.xdata3.xi31.     nor2_bhv           1.00 
      371 xsar.xsa_logic.xdata3.xi37.     nor2_bhv           1.00 
      372 xsar.xsa_logic.xdata2.xi1.      inv_bhv            1.00 
      373 xsar.xsa_logic.xdata2.xi40.     tgb                1.00 
      374 xsar.xsa_logic.xdata2.xi34.     tgb                1.00 
      375 xsar.xsa_logic.xdata2.xi41.     tgb                1.00 
      376 xsar.xsa_logic.xdata2.xsw1.     tgb                1.00 
      377 xsar.xsa_logic.xdata2.xi42.     nor2_bhv           1.00 
      378 xsar.xsa_logic.xdata2.xi43.     nor2_bhv           1.00 
      379 xsar.xsa_logic.xdata2.xi31.     nor2_bhv           1.00 
      380 xsar.xsa_logic.xdata2.xi37.     nor2_bhv           1.00 
      381 xsar.xsa_logic.xdata1.xi1.      inv_bhv            1.00 
      382 xsar.xsa_logic.xdata1.xi40.     tgb                1.00 
      383 xsar.xsa_logic.xdata1.xi34.     tgb                1.00 
      384 xsar.xsa_logic.xdata1.xi41.     tgb                1.00 
      385 xsar.xsa_logic.xdata1.xsw1.     tgb                1.00 
      386 xsar.xsa_logic.xdata1.xi42.     nor2_bhv           1.00 
      387 xsar.xsa_logic.xdata1.xi43.     nor2_bhv           1.00 
      388 xsar.xsa_logic.xdata1.xi31.     nor2_bhv           1.00 
      389 xsar.xsa_logic.xdata1.xi37.     nor2_bhv           1.00 
      390 xsar.xsa_logic.xdata0.xi1.      inv_bhv            1.00 
      391 xsar.xsa_logic.xdata0.xi40.     tgb                1.00 
      392 xsar.xsa_logic.xdata0.xi34.     tgb                1.00 
      393 xsar.xsa_logic.xdata0.xi41.     tgb                1.00 
      394 xsar.xsa_logic.xdata0.xsw1.     tgb                1.00 
      395 xsar.xsa_logic.xdata0.xi42.     nor2_bhv           1.00 
      396 xsar.xsa_logic.xdata0.xi43.     nor2_bhv           1.00 
      397 xsar.xsa_logic.xdata0.xi31.     nor2_bhv           1.00 
      398 xsar.xsa_logic.xdata0.xi37.     nor2_bhv           1.00 
      399 xsar.xsa_logic.xdata5.xi1.      inv_bhv            1.00 
      400 xsar.xsa_logic.xdata5.xi40.     tgb                1.00 
      401 xsar.xsa_logic.xdata5.xi34.     tgb                1.00 
      402 xsar.xsa_logic.xdata5.xi41.     tgb                1.00 
      403 xsar.xsa_logic.xdata5.xsw1.     tgb                1.00 
      404 xsar.xsa_logic.xdata5.xi42.     nor2_bhv           1.00 
      405 xsar.xsa_logic.xdata5.xi43.     nor2_bhv           1.00 
      406 xsar.xsa_logic.xdata5.xi31.     nor2_bhv           1.00 
      407 xsar.xsa_logic.xdata5.xi37.     nor2_bhv           1.00 
      408 xsar.xsa_logic.xrsh0.xi1.       inv_bhv            1.00 
      409 xsar.xsa_logic.xrsh0.xi40.      tgb                1.00 
      410 xsar.xsa_logic.xrsh0.xi34.      tgb                1.00 
      411 xsar.xsa_logic.xrsh0.xi41.      tgb                1.00 
      412 xsar.xsa_logic.xrsh0.xsw1.      tgb                1.00 
      413 xsar.xsa_logic.xrsh0.xi42.      nor2_bhv           1.00 
      414 xsar.xsa_logic.xrsh0.xi43.      nor2_bhv           1.00 
      415 xsar.xsa_logic.xrsh0.xi31.      nor2_bhv           1.00 
      416 xsar.xsa_logic.xrsh0.xi37.      nor2_bhv           1.00 
      417 xsar.xsa_logic.xrsh3.xi1.       inv_bhv            1.00 
      418 xsar.xsa_logic.xrsh3.xi40.      tgb                1.00 
      419 xsar.xsa_logic.xrsh3.xi34.      tgb                1.00 
      420 xsar.xsa_logic.xrsh3.xi41.      tgb                1.00 
      421 xsar.xsa_logic.xrsh3.xsw1.      tgb                1.00 
      422 xsar.xsa_logic.xrsh3.xi42.      nor2_bhv           1.00 
      423 xsar.xsa_logic.xrsh3.xi43.      nor2_bhv           1.00 
      424 xsar.xsa_logic.xrsh3.xi31.      nor2_bhv           1.00 
      425 xsar.xsa_logic.xrsh3.xi37.      nor2_bhv           1.00 
      426 xsar.xsa_logic.xrsh2.xi1.       inv_bhv            1.00 
      427 xsar.xsa_logic.xrsh2.xi40.      tgb                1.00 
      428 xsar.xsa_logic.xrsh2.xi34.      tgb                1.00 
      429 xsar.xsa_logic.xrsh2.xi41.      tgb                1.00 
      430 xsar.xsa_logic.xrsh2.xsw1.      tgb                1.00 
      431 xsar.xsa_logic.xrsh2.xi42.      nor2_bhv           1.00 
      432 xsar.xsa_logic.xrsh2.xi43.      nor2_bhv           1.00 
      433 xsar.xsa_logic.xrsh2.xi31.      nor2_bhv           1.00 
      434 xsar.xsa_logic.xrsh2.xi37.      nor2_bhv           1.00 
      435 xsar.xsa_logic.xrsh1.xi1.       inv_bhv            1.00 
      436 xsar.xsa_logic.xrsh1.xi40.      tgb                1.00 
      437 xsar.xsa_logic.xrsh1.xi34.      tgb                1.00 
      438 xsar.xsa_logic.xrsh1.xi41.      tgb                1.00 
      439 xsar.xsa_logic.xrsh1.xsw1.      tgb                1.00 
      440 xsar.xsa_logic.xrsh1.xi42.      nor2_bhv           1.00 
      441 xsar.xsa_logic.xrsh1.xi43.      nor2_bhv           1.00 
      442 xsar.xsa_logic.xrsh1.xi31.      nor2_bhv           1.00 
      443 xsar.xsa_logic.xrsh1.xi37.      nor2_bhv           1.00 
      444 xsar.xsa_logic.xrsh4.xi1.       inv_bhv            1.00 
      445 xsar.xsa_logic.xrsh4.xi40.      tgb                1.00 
      446 xsar.xsa_logic.xrsh4.xi34.      tgb                1.00 
      447 xsar.xsa_logic.xrsh4.xi41.      tgb                1.00 
      448 xsar.xsa_logic.xrsh4.xsw1.      tgb                1.00 
      449 xsar.xsa_logic.xrsh4.xi42.      nor2_bhv           1.00 
      450 xsar.xsa_logic.xrsh4.xi43.      nor2_bhv           1.00 
      451 xsar.xsa_logic.xrsh4.xi31.      nor2_bhv           1.00 
      452 xsar.xsa_logic.xrsh4.xi37.      nor2_bhv           1.00 
      453 xsar.xsa_logic.xdata7.xi1.      inv_bhv            1.00 
      454 xsar.xsa_logic.xdata7.xi40.     tgb                1.00 
      455 xsar.xsa_logic.xdata7.xi34.     tgb                1.00 
      456 xsar.xsa_logic.xdata7.xi41.     tgb                1.00 
      457 xsar.xsa_logic.xdata7.xsw1.     tgb                1.00 
      458 xsar.xsa_logic.xdata7.xi42.     nor2_bhv           1.00 
      459 xsar.xsa_logic.xdata7.xi43.     nor2_bhv           1.00 
      460 xsar.xsa_logic.xdata7.xi31.     nor2_bhv           1.00 
      461 xsar.xsa_logic.xdata7.xi37.     nor2_bhv           1.00 
      462 xsar.xsa_logic.xrsh5.xi1.       inv_bhv            1.00 
      463 xsar.xsa_logic.xrsh5.xi40.      tgb                1.00 
      464 xsar.xsa_logic.xrsh5.xi34.      tgb                1.00 
      465 xsar.xsa_logic.xrsh5.xi41.      tgb                1.00 
      466 xsar.xsa_logic.xrsh5.xsw1.      tgb                1.00 
      467 xsar.xsa_logic.xrsh5.xi42.      nor2_bhv           1.00 
      468 xsar.xsa_logic.xrsh5.xi43.      nor2_bhv           1.00 
      469 xsar.xsa_logic.xrsh5.xi31.      nor2_bhv           1.00 
      470 xsar.xsa_logic.xrsh5.xi37.      nor2_bhv           1.00 
      471 xsar.xsa_logic.xdata6.xi1.      inv_bhv            1.00 
      472 xsar.xsa_logic.xdata6.xi40.     tgb                1.00 
      473 xsar.xsa_logic.xdata6.xi34.     tgb                1.00 
      474 xsar.xsa_logic.xdata6.xi41.     tgb                1.00 
      475 xsar.xsa_logic.xdata6.xsw1.     tgb                1.00 
      476 xsar.xsa_logic.xdata6.xi42.     nor2_bhv           1.00 
      477 xsar.xsa_logic.xdata6.xi43.     nor2_bhv           1.00 
      478 xsar.xsa_logic.xdata6.xi31.     nor2_bhv           1.00 
      479 xsar.xsa_logic.xdata6.xi37.     nor2_bhv           1.00 
      480 xsar.xsa_logic.xdata4.xi1.      inv_bhv            1.00 
      481 xsar.xsa_logic.xdata4.xi40.     tgb                1.00 
      482 xsar.xsa_logic.xdata4.xi34.     tgb                1.00 
      483 xsar.xsa_logic.xdata4.xi41.     tgb                1.00 
      484 xsar.xsa_logic.xdata4.xsw1.     tgb                1.00 
      485 xsar.xsa_logic.xdata4.xi42.     nor2_bhv           1.00 
      486 xsar.xsa_logic.xdata4.xi43.     nor2_bhv           1.00 
      487 xsar.xsa_logic.xdata4.xi31.     nor2_bhv           1.00 
      488 xsar.xsa_logic.xdata4.xi37.     nor2_bhv           1.00 
      489 xsar.xsa_logic.xrsh6.xi1.       inv_bhv            1.00 
      490 xsar.xsa_logic.xrsh6.xi40.      tgb                1.00 
      491 xsar.xsa_logic.xrsh6.xi34.      tgb                1.00 
      492 xsar.xsa_logic.xrsh6.xi41.      tgb                1.00 
      493 xsar.xsa_logic.xrsh6.xsw1.      tgb                1.00 
      494 xsar.xsa_logic.xrsh6.xi42.      nor2_bhv           1.00 
      495 xsar.xsa_logic.xrsh6.xi43.      nor2_bhv           1.00 
      496 xsar.xsa_logic.xrsh6.xi31.      nor2_bhv           1.00 
      497 xsar.xsa_logic.xrsh6.xi37.      nor2_bhv           1.00 
      498 xsar.xsa_logic.xrsh7.xi1.       inv_bhv            1.00 
      499 xsar.xsa_logic.xrsh7.xi40.      tgb                1.00 
      500 xsar.xsa_logic.xrsh7.xi34.      tgb                1.00 
      501 xsar.xsa_logic.xrsh7.xi41.      tgb                1.00 
      502 xsar.xsa_logic.xrsh7.xsw1.      tgb                1.00 
      503 xsar.xsa_logic.xrsh7.xi42.      nor2_bhv           1.00 
      504 xsar.xsa_logic.xrsh7.xi43.      nor2_bhv           1.00 
      505 xsar.xsa_logic.xrsh7.xi31.      nor2_bhv           1.00 
      506 xsar.xsa_logic.xrsh7.xi37.      nor2_bhv           1.00 
      507 xsar.xdffout_7.xi1.xp1.         pmos_b             1.00 
      508 xsar.xdffout_7.xi1.xn1.         nmos_b             1.00 
      509 xsar.xdffout_7.xi42.xn1.        nmos_b             1.00 
      510 xsar.xdffout_7.xi42.xi9.        nmos_b             1.00 
      511 xsar.xdffout_7.xi42.xp1.        pmos_b             1.00 
      512 xsar.xdffout_7.xi42.xi10.       pmos_b             1.00 
      513 xsar.xdffout_7.xi43.xn1.        nmos_b             1.00 
      514 xsar.xdffout_7.xi43.xi9.        nmos_b             1.00 
      515 xsar.xdffout_7.xi43.xp1.        pmos_b             1.00 
      516 xsar.xdffout_7.xi43.xi10.       pmos_b             1.00 
      517 xsar.xdffout_7.xi31.xn1.        nmos_b             1.00 
      518 xsar.xdffout_7.xi31.xi9.        nmos_b             1.00 
      519 xsar.xdffout_7.xi31.xp1.        pmos_b             1.00 
      520 xsar.xdffout_7.xi31.xi10.       pmos_b             1.00 
      521 xsar.xdffout_7.xi37.xn1.        nmos_b             1.00 
      522 xsar.xdffout_7.xi37.xi9.        nmos_b             1.00 
      523 xsar.xdffout_7.xi37.xp1.        pmos_b             1.00 
      524 xsar.xdffout_7.xi37.xi10.       pmos_b             1.00 
      525 xsar.xdffout_6.xi1.xp1.         pmos_b             1.00 
      526 xsar.xdffout_6.xi1.xn1.         nmos_b             1.00 
      527 xsar.xdffout_6.xi42.xn1.        nmos_b             1.00 
      528 xsar.xdffout_6.xi42.xi9.        nmos_b             1.00 
      529 xsar.xdffout_6.xi42.xp1.        pmos_b             1.00 
      530 xsar.xdffout_6.xi42.xi10.       pmos_b             1.00 
      531 xsar.xdffout_6.xi43.xn1.        nmos_b             1.00 
      532 xsar.xdffout_6.xi43.xi9.        nmos_b             1.00 
      533 xsar.xdffout_6.xi43.xp1.        pmos_b             1.00 
      534 xsar.xdffout_6.xi43.xi10.       pmos_b             1.00 
      535 xsar.xdffout_6.xi31.xn1.        nmos_b             1.00 
      536 xsar.xdffout_6.xi31.xi9.        nmos_b             1.00 
      537 xsar.xdffout_6.xi31.xp1.        pmos_b             1.00 
      538 xsar.xdffout_6.xi31.xi10.       pmos_b             1.00 
      539 xsar.xdffout_6.xi37.xn1.        nmos_b             1.00 
      540 xsar.xdffout_6.xi37.xi9.        nmos_b             1.00 
      541 xsar.xdffout_6.xi37.xp1.        pmos_b             1.00 
      542 xsar.xdffout_6.xi37.xi10.       pmos_b             1.00 
      543 xsar.xdffout_5.xi1.xp1.         pmos_b             1.00 
      544 xsar.xdffout_5.xi1.xn1.         nmos_b             1.00 
      545 xsar.xdffout_5.xi42.xn1.        nmos_b             1.00 
      546 xsar.xdffout_5.xi42.xi9.        nmos_b             1.00 
      547 xsar.xdffout_5.xi42.xp1.        pmos_b             1.00 
      548 xsar.xdffout_5.xi42.xi10.       pmos_b             1.00 
      549 xsar.xdffout_5.xi43.xn1.        nmos_b             1.00 
      550 xsar.xdffout_5.xi43.xi9.        nmos_b             1.00 
      551 xsar.xdffout_5.xi43.xp1.        pmos_b             1.00 
      552 xsar.xdffout_5.xi43.xi10.       pmos_b             1.00 
      553 xsar.xdffout_5.xi31.xn1.        nmos_b             1.00 
      554 xsar.xdffout_5.xi31.xi9.        nmos_b             1.00 
      555 xsar.xdffout_5.xi31.xp1.        pmos_b             1.00 
      556 xsar.xdffout_5.xi31.xi10.       pmos_b             1.00 
      557 xsar.xdffout_5.xi37.xn1.        nmos_b             1.00 
      558 xsar.xdffout_5.xi37.xi9.        nmos_b             1.00 
      559 xsar.xdffout_5.xi37.xp1.        pmos_b             1.00 
      560 xsar.xdffout_5.xi37.xi10.       pmos_b             1.00 
      561 xsar.xdffout_4.xi1.xp1.         pmos_b             1.00 
      562 xsar.xdffout_4.xi1.xn1.         nmos_b             1.00 
      563 xsar.xdffout_4.xi42.xn1.        nmos_b             1.00 
      564 xsar.xdffout_4.xi42.xi9.        nmos_b             1.00 
      565 xsar.xdffout_4.xi42.xp1.        pmos_b             1.00 
      566 xsar.xdffout_4.xi42.xi10.       pmos_b             1.00 
      567 xsar.xdffout_4.xi43.xn1.        nmos_b             1.00 
      568 xsar.xdffout_4.xi43.xi9.        nmos_b             1.00 
      569 xsar.xdffout_4.xi43.xp1.        pmos_b             1.00 
      570 xsar.xdffout_4.xi43.xi10.       pmos_b             1.00 
      571 xsar.xdffout_4.xi31.xn1.        nmos_b             1.00 
      572 xsar.xdffout_4.xi31.xi9.        nmos_b             1.00 
      573 xsar.xdffout_4.xi31.xp1.        pmos_b             1.00 
      574 xsar.xdffout_4.xi31.xi10.       pmos_b             1.00 
      575 xsar.xdffout_4.xi37.xn1.        nmos_b             1.00 
      576 xsar.xdffout_4.xi37.xi9.        nmos_b             1.00 
      577 xsar.xdffout_4.xi37.xp1.        pmos_b             1.00 
      578 xsar.xdffout_4.xi37.xi10.       pmos_b             1.00 
      579 xsar.xdffout_3.xi1.xp1.         pmos_b             1.00 
      580 xsar.xdffout_3.xi1.xn1.         nmos_b             1.00 
      581 xsar.xdffout_3.xi42.xn1.        nmos_b             1.00 
      582 xsar.xdffout_3.xi42.xi9.        nmos_b             1.00 
      583 xsar.xdffout_3.xi42.xp1.        pmos_b             1.00 
      584 xsar.xdffout_3.xi42.xi10.       pmos_b             1.00 
      585 xsar.xdffout_3.xi43.xn1.        nmos_b             1.00 
      586 xsar.xdffout_3.xi43.xi9.        nmos_b             1.00 
      587 xsar.xdffout_3.xi43.xp1.        pmos_b             1.00 
      588 xsar.xdffout_3.xi43.xi10.       pmos_b             1.00 
      589 xsar.xdffout_3.xi31.xn1.        nmos_b             1.00 
      590 xsar.xdffout_3.xi31.xi9.        nmos_b             1.00 
      591 xsar.xdffout_3.xi31.xp1.        pmos_b             1.00 
      592 xsar.xdffout_3.xi31.xi10.       pmos_b             1.00 
      593 xsar.xdffout_3.xi37.xn1.        nmos_b             1.00 
      594 xsar.xdffout_3.xi37.xi9.        nmos_b             1.00 
      595 xsar.xdffout_3.xi37.xp1.        pmos_b             1.00 
      596 xsar.xdffout_3.xi37.xi10.       pmos_b             1.00 
      597 xsar.xdffout_2.xi1.xp1.         pmos_b             1.00 
      598 xsar.xdffout_2.xi1.xn1.         nmos_b             1.00 
      599 xsar.xdffout_2.xi42.xn1.        nmos_b             1.00 
      600 xsar.xdffout_2.xi42.xi9.        nmos_b             1.00 
      601 xsar.xdffout_2.xi42.xp1.        pmos_b             1.00 
      602 xsar.xdffout_2.xi42.xi10.       pmos_b             1.00 
      603 xsar.xdffout_2.xi43.xn1.        nmos_b             1.00 
      604 xsar.xdffout_2.xi43.xi9.        nmos_b             1.00 
      605 xsar.xdffout_2.xi43.xp1.        pmos_b             1.00 
      606 xsar.xdffout_2.xi43.xi10.       pmos_b             1.00 
      607 xsar.xdffout_2.xi31.xn1.        nmos_b             1.00 
      608 xsar.xdffout_2.xi31.xi9.        nmos_b             1.00 
      609 xsar.xdffout_2.xi31.xp1.        pmos_b             1.00 
      610 xsar.xdffout_2.xi31.xi10.       pmos_b             1.00 
      611 xsar.xdffout_2.xi37.xn1.        nmos_b             1.00 
      612 xsar.xdffout_2.xi37.xi9.        nmos_b             1.00 
      613 xsar.xdffout_2.xi37.xp1.        pmos_b             1.00 
      614 xsar.xdffout_2.xi37.xi10.       pmos_b             1.00 
      615 xsar.xdffout_1.xi1.xp1.         pmos_b             1.00 
      616 xsar.xdffout_1.xi1.xn1.         nmos_b             1.00 
      617 xsar.xdffout_1.xi42.xn1.        nmos_b             1.00 
      618 xsar.xdffout_1.xi42.xi9.        nmos_b             1.00 
      619 xsar.xdffout_1.xi42.xp1.        pmos_b             1.00 
      620 xsar.xdffout_1.xi42.xi10.       pmos_b             1.00 
      621 xsar.xdffout_1.xi43.xn1.        nmos_b             1.00 
      622 xsar.xdffout_1.xi43.xi9.        nmos_b             1.00 
      623 xsar.xdffout_1.xi43.xp1.        pmos_b             1.00 
      624 xsar.xdffout_1.xi43.xi10.       pmos_b             1.00 
      625 xsar.xdffout_1.xi31.xn1.        nmos_b             1.00 
      626 xsar.xdffout_1.xi31.xi9.        nmos_b             1.00 
      627 xsar.xdffout_1.xi31.xp1.        pmos_b             1.00 
      628 xsar.xdffout_1.xi31.xi10.       pmos_b             1.00 
      629 xsar.xdffout_1.xi37.xn1.        nmos_b             1.00 
      630 xsar.xdffout_1.xi37.xi9.        nmos_b             1.00 
      631 xsar.xdffout_1.xi37.xp1.        pmos_b             1.00 
      632 xsar.xdffout_1.xi37.xi10.       pmos_b             1.00 
      633 xsar.xdffout_0.xi1.xp1.         pmos_b             1.00 
      634 xsar.xdffout_0.xi1.xn1.         nmos_b             1.00 
      635 xsar.xdffout_0.xi42.xn1.        nmos_b             1.00 
      636 xsar.xdffout_0.xi42.xi9.        nmos_b             1.00 
      637 xsar.xdffout_0.xi42.xp1.        pmos_b             1.00 
      638 xsar.xdffout_0.xi42.xi10.       pmos_b             1.00 
      639 xsar.xdffout_0.xi43.xn1.        nmos_b             1.00 
      640 xsar.xdffout_0.xi43.xi9.        nmos_b             1.00 
      641 xsar.xdffout_0.xi43.xp1.        pmos_b             1.00 
      642 xsar.xdffout_0.xi43.xi10.       pmos_b             1.00 
      643 xsar.xdffout_0.xi31.xn1.        nmos_b             1.00 
      644 xsar.xdffout_0.xi31.xi9.        nmos_b             1.00 
      645 xsar.xdffout_0.xi31.xp1.        pmos_b             1.00 
      646 xsar.xdffout_0.xi31.xi10.       pmos_b             1.00 
      647 xsar.xdffout_0.xi37.xn1.        nmos_b             1.00 
      648 xsar.xdffout_0.xi37.xi9.        nmos_b             1.00 
      649 xsar.xdffout_0.xi37.xp1.        pmos_b             1.00 
      650 xsar.xdffout_0.xi37.xi10.       pmos_b             1.00 
      651 xds.xint1.xdac.xi6.             tgb                1.00 
      652 xds.xint1.xdac.xi7.             tgb                1.00 
      653 xds.xint1.xdac.xi40.            tgb                1.00 
      654 xds.xint1.xdac.xi41.            tgb                1.00 
      655 xds.xquantizer.xcmp3.xdff.      dff                1.00 
      656 xds.xquantizer.xcmp3.xpreamp.   amp_cmp            1.00 
      657 xds.xquantizer.xi1.xp1.         pmos_b             1.00 
      658 xds.xquantizer.xi1.xn1.         nmos_b             1.00 
      659 xds.xclk_fb.xi64.xp1.           pmos_b             1.00 
      660 xds.xclk_fb.xi64.xn1.           nmos_b             1.00 
      661 xds.xclk_fb.xi20.xp1.           pmos_b             1.00 
      662 xds.xclk_fb.xi20.xn1.           nmos_b             1.00 
      663 xds.xclk_fb.xi60.xp1.           pmos_b             1.00 
      664 xds.xclk_fb.xi60.xn1.           nmos_b             1.00 
      665 xds.xclk_fb.xi59.xp1.           pmos_b             1.00 
      666 xds.xclk_fb.xi59.xn1.           nmos_b             1.00 
      667 xds.xclk_fb.xi63.xp1.           pmos_b             1.00 
      668 xds.xclk_fb.xi63.xn1.           nmos_b             1.00 
      669 xds.xclk_fb.xi62.xn1.           nmos_b             1.00 
      670 xds.xclk_fb.xi62.xi9.           nmos_b             1.00 
      671 xds.xclk_fb.xi62.xp1.           pmos_b             1.00 
      672 xds.xclk_fb.xi62.xi10.          pmos_b             1.00 
      673 xds.xclk_fb.xi19.xn1.           nmos_b             1.00 
      674 xds.xclk_fb.xi19.xi9.           nmos_b             1.00 
      675 xds.xclk_fb.xi19.xp1.           pmos_b             1.00 
      676 xds.xclk_fb.xi19.xi10.          pmos_b             1.00 
      677 xsar.xc_array_p.xsa_dac.xswdac_0.xi7.
                                            inv_bhv            1.00 
      678 xsar.xc_array_p.xsa_dac.xswdac_0.xi3.
                                            inv_bhv            1.00 
      679 xsar.xc_array_p.xsa_dac.xswdac_0.xi20.
                                            inv_bhv            1.00 
      680 xsar.xc_array_p.xsa_dac.xswdac_0.xi1.
                                            inv_bhv            1.00 
      681 xsar.xc_array_p.xsa_dac.xswdac_0.xi2.
                                            nand2_bhv          1.00 
      682 xsar.xc_array_p.xsa_dac.xswdac_0.xi19.
                                            nand2_bhv          1.00 
      683 xsar.xc_array_p.xsa_dac.xswdac_0.xswp.
                                            tgb                1.00 
      684 xsar.xc_array_p.xsa_dac.xswdac_0.xswn.
                                            tgb                1.00 
      685 xsar.xc_array_p.xsa_dac.xswdac_0.xswin.
                                            tgb                1.00 
      686 xsar.xc_array_p.xsa_dac.xswdac_1.xi7.
                                            inv_bhv            1.00 
      687 xsar.xc_array_p.xsa_dac.xswdac_1.xi3.
                                            inv_bhv            1.00 
      688 xsar.xc_array_p.xsa_dac.xswdac_1.xi20.
                                            inv_bhv            1.00 
      689 xsar.xc_array_p.xsa_dac.xswdac_1.xi1.
                                            inv_bhv            1.00 
      690 xsar.xc_array_p.xsa_dac.xswdac_1.xi2.
                                            nand2_bhv          1.00 
      691 xsar.xc_array_p.xsa_dac.xswdac_1.xi19.
                                            nand2_bhv          1.00 
      692 xsar.xc_array_p.xsa_dac.xswdac_1.xswp.
                                            tgb                1.00 
      693 xsar.xc_array_p.xsa_dac.xswdac_1.xswn.
                                            tgb                1.00 
      694 xsar.xc_array_p.xsa_dac.xswdac_1.xswin.
                                            tgb                1.00 
      695 xsar.xc_array_p.xsa_dac.xswdac_2.xi7.
                                            inv_bhv            1.00 
      696 xsar.xc_array_p.xsa_dac.xswdac_2.xi3.
                                            inv_bhv            1.00 
      697 xsar.xc_array_p.xsa_dac.xswdac_2.xi20.
                                            inv_bhv            1.00 
      698 xsar.xc_array_p.xsa_dac.xswdac_2.xi1.
                                            inv_bhv            1.00 
      699 xsar.xc_array_p.xsa_dac.xswdac_2.xi2.
                                            nand2_bhv          1.00 
      700 xsar.xc_array_p.xsa_dac.xswdac_2.xi19.
                                            nand2_bhv          1.00 
      701 xsar.xc_array_p.xsa_dac.xswdac_2.xswp.
                                            tgb                1.00 
      702 xsar.xc_array_p.xsa_dac.xswdac_2.xswn.
                                            tgb                1.00 
      703 xsar.xc_array_p.xsa_dac.xswdac_2.xswin.
                                            tgb                1.00 
      704 xsar.xc_array_p.xsa_dac.xswdac_3.xi7.
                                            inv_bhv            1.00 
      705 xsar.xc_array_p.xsa_dac.xswdac_3.xi3.
                                            inv_bhv            1.00 
      706 xsar.xc_array_p.xsa_dac.xswdac_3.xi20.
                                            inv_bhv            1.00 
      707 xsar.xc_array_p.xsa_dac.xswdac_3.xi1.
                                            inv_bhv            1.00 
      708 xsar.xc_array_p.xsa_dac.xswdac_3.xi2.
                                            nand2_bhv          1.00 
      709 xsar.xc_array_p.xsa_dac.xswdac_3.xi19.
                                            nand2_bhv          1.00 
      710 xsar.xc_array_p.xsa_dac.xswdac_3.xswp.
                                            tgb                1.00 
      711 xsar.xc_array_p.xsa_dac.xswdac_3.xswn.
                                            tgb                1.00 
      712 xsar.xc_array_p.xsa_dac.xswdac_3.xswin.
                                            tgb                1.00 
      713 xsar.xc_array_p.xsa_dac.xswdac_4.xi7.
                                            inv_bhv            1.00 
      714 xsar.xc_array_p.xsa_dac.xswdac_4.xi3.
                                            inv_bhv            1.00 
      715 xsar.xc_array_p.xsa_dac.xswdac_4.xi20.
                                            inv_bhv            1.00 
      716 xsar.xc_array_p.xsa_dac.xswdac_4.xi1.
                                            inv_bhv            1.00 
      717 xsar.xc_array_p.xsa_dac.xswdac_4.xi2.
                                            nand2_bhv          1.00 
      718 xsar.xc_array_p.xsa_dac.xswdac_4.xi19.
                                            nand2_bhv          1.00 
      719 xsar.xc_array_p.xsa_dac.xswdac_4.xswp.
                                            tgb                1.00 
      720 xsar.xc_array_p.xsa_dac.xswdac_4.xswn.
                                            tgb                1.00 
      721 xsar.xc_array_p.xsa_dac.xswdac_4.xswin.
                                            tgb                1.00 
      722 xsar.xc_array_p.xsa_dac.xswdac_5.xi7.
                                            inv_bhv            1.00 
      723 xsar.xc_array_p.xsa_dac.xswdac_5.xi3.
                                            inv_bhv            1.00 
      724 xsar.xc_array_p.xsa_dac.xswdac_5.xi20.
                                            inv_bhv            1.00 
      725 xsar.xc_array_p.xsa_dac.xswdac_5.xi1.
                                            inv_bhv            1.00 
      726 xsar.xc_array_p.xsa_dac.xswdac_5.xi2.
                                            nand2_bhv          1.00 
      727 xsar.xc_array_p.xsa_dac.xswdac_5.xi19.
                                            nand2_bhv          1.00 
      728 xsar.xc_array_p.xsa_dac.xswdac_5.xswp.
                                            tgb                1.00 
      729 xsar.xc_array_p.xsa_dac.xswdac_5.xswn.
                                            tgb                1.00 
      730 xsar.xc_array_p.xsa_dac.xswdac_5.xswin.
                                            tgb                1.00 
      731 xsar.xc_array_p.xsa_dac.xswdac_6.xi7.
                                            inv_bhv            1.00 
      732 xsar.xc_array_p.xsa_dac.xswdac_6.xi3.
                                            inv_bhv            1.00 
      733 xsar.xc_array_p.xsa_dac.xswdac_6.xi20.
                                            inv_bhv            1.00 
      734 xsar.xc_array_p.xsa_dac.xswdac_6.xi1.
                                            inv_bhv            1.00 
      735 xsar.xc_array_p.xsa_dac.xswdac_6.xi2.
                                            nand2_bhv          1.00 
      736 xsar.xc_array_p.xsa_dac.xswdac_6.xi19.
                                            nand2_bhv          1.00 
      737 xsar.xc_array_p.xsa_dac.xswdac_6.xswp.
                                            tgb                1.00 
      738 xsar.xc_array_p.xsa_dac.xswdac_6.xswn.
                                            tgb                1.00 
      739 xsar.xc_array_p.xsa_dac.xswdac_6.xswin.
                                            tgb                1.00 
      740 xsar.xc_array_p.xsa_dac.xswdac_7.xi7.
                                            inv_bhv            1.00 
      741 xsar.xc_array_p.xsa_dac.xswdac_7.xi3.
                                            inv_bhv            1.00 
      742 xsar.xc_array_p.xsa_dac.xswdac_7.xi20.
                                            inv_bhv            1.00 
      743 xsar.xc_array_p.xsa_dac.xswdac_7.xi1.
                                            inv_bhv            1.00 
      744 xsar.xc_array_p.xsa_dac.xswdac_7.xi2.
                                            nand2_bhv          1.00 
      745 xsar.xc_array_p.xsa_dac.xswdac_7.xi19.
                                            nand2_bhv          1.00 
      746 xsar.xc_array_p.xsa_dac.xswdac_7.xswp.
                                            tgb                1.00 
      747 xsar.xc_array_p.xsa_dac.xswdac_7.xswn.
                                            tgb                1.00 
      748 xsar.xc_array_p.xsa_dac.xswdac_7.xswin.
                                            tgb                1.00 
      749 xsar.xc_array_p.xsa_dac.xi1.xp1.
                                            pmos_b             1.00 
      750 xsar.xc_array_p.xsa_dac.xi1.xn1.
                                            nmos_b             1.00 
      751 xsar.xc_array_n.xsa_dac.xswdac_0.xi7.
                                            inv_bhv            1.00 
      752 xsar.xc_array_n.xsa_dac.xswdac_0.xi3.
                                            inv_bhv            1.00 
      753 xsar.xc_array_n.xsa_dac.xswdac_0.xi20.
                                            inv_bhv            1.00 
      754 xsar.xc_array_n.xsa_dac.xswdac_0.xi1.
                                            inv_bhv            1.00 
      755 xsar.xc_array_n.xsa_dac.xswdac_0.xi2.
                                            nand2_bhv          1.00 
      756 xsar.xc_array_n.xsa_dac.xswdac_0.xi19.
                                            nand2_bhv          1.00 
      757 xsar.xc_array_n.xsa_dac.xswdac_0.xswp.
                                            tgb                1.00 
      758 xsar.xc_array_n.xsa_dac.xswdac_0.xswn.
                                            tgb                1.00 
      759 xsar.xc_array_n.xsa_dac.xswdac_0.xswin.
                                            tgb                1.00 
      760 xsar.xc_array_n.xsa_dac.xswdac_1.xi7.
                                            inv_bhv            1.00 
      761 xsar.xc_array_n.xsa_dac.xswdac_1.xi3.
                                            inv_bhv            1.00 
      762 xsar.xc_array_n.xsa_dac.xswdac_1.xi20.
                                            inv_bhv            1.00 
      763 xsar.xc_array_n.xsa_dac.xswdac_1.xi1.
                                            inv_bhv            1.00 
      764 xsar.xc_array_n.xsa_dac.xswdac_1.xi2.
                                            nand2_bhv          1.00 
      765 xsar.xc_array_n.xsa_dac.xswdac_1.xi19.
                                            nand2_bhv          1.00 
      766 xsar.xc_array_n.xsa_dac.xswdac_1.xswp.
                                            tgb                1.00 
      767 xsar.xc_array_n.xsa_dac.xswdac_1.xswn.
                                            tgb                1.00 
      768 xsar.xc_array_n.xsa_dac.xswdac_1.xswin.
                                            tgb                1.00 
      769 xsar.xc_array_n.xsa_dac.xswdac_2.xi7.
                                            inv_bhv            1.00 
      770 xsar.xc_array_n.xsa_dac.xswdac_2.xi3.
                                            inv_bhv            1.00 
      771 xsar.xc_array_n.xsa_dac.xswdac_2.xi20.
                                            inv_bhv            1.00 
      772 xsar.xc_array_n.xsa_dac.xswdac_2.xi1.
                                            inv_bhv            1.00 
      773 xsar.xc_array_n.xsa_dac.xswdac_2.xi2.
                                            nand2_bhv          1.00 
      774 xsar.xc_array_n.xsa_dac.xswdac_2.xi19.
                                            nand2_bhv          1.00 
      775 xsar.xc_array_n.xsa_dac.xswdac_2.xswp.
                                            tgb                1.00 
      776 xsar.xc_array_n.xsa_dac.xswdac_2.xswn.
                                            tgb                1.00 
      777 xsar.xc_array_n.xsa_dac.xswdac_2.xswin.
                                            tgb                1.00 
      778 xsar.xc_array_n.xsa_dac.xswdac_3.xi7.
                                            inv_bhv            1.00 
      779 xsar.xc_array_n.xsa_dac.xswdac_3.xi3.
                                            inv_bhv            1.00 
      780 xsar.xc_array_n.xsa_dac.xswdac_3.xi20.
                                            inv_bhv            1.00 
      781 xsar.xc_array_n.xsa_dac.xswdac_3.xi1.
                                            inv_bhv            1.00 
      782 xsar.xc_array_n.xsa_dac.xswdac_3.xi2.
                                            nand2_bhv          1.00 
      783 xsar.xc_array_n.xsa_dac.xswdac_3.xi19.
                                            nand2_bhv          1.00 
      784 xsar.xc_array_n.xsa_dac.xswdac_3.xswp.
                                            tgb                1.00 
      785 xsar.xc_array_n.xsa_dac.xswdac_3.xswn.
                                            tgb                1.00 
      786 xsar.xc_array_n.xsa_dac.xswdac_3.xswin.
                                            tgb                1.00 
      787 xsar.xc_array_n.xsa_dac.xswdac_4.xi7.
                                            inv_bhv            1.00 
      788 xsar.xc_array_n.xsa_dac.xswdac_4.xi3.
                                            inv_bhv            1.00 
      789 xsar.xc_array_n.xsa_dac.xswdac_4.xi20.
                                            inv_bhv            1.00 
      790 xsar.xc_array_n.xsa_dac.xswdac_4.xi1.
                                            inv_bhv            1.00 
      791 xsar.xc_array_n.xsa_dac.xswdac_4.xi2.
                                            nand2_bhv          1.00 
      792 xsar.xc_array_n.xsa_dac.xswdac_4.xi19.
                                            nand2_bhv          1.00 
      793 xsar.xc_array_n.xsa_dac.xswdac_4.xswp.
                                            tgb                1.00 
      794 xsar.xc_array_n.xsa_dac.xswdac_4.xswn.
                                            tgb                1.00 
      795 xsar.xc_array_n.xsa_dac.xswdac_4.xswin.
                                            tgb                1.00 
      796 xsar.xc_array_n.xsa_dac.xswdac_5.xi7.
                                            inv_bhv            1.00 
      797 xsar.xc_array_n.xsa_dac.xswdac_5.xi3.
                                            inv_bhv            1.00 
      798 xsar.xc_array_n.xsa_dac.xswdac_5.xi20.
                                            inv_bhv            1.00 
      799 xsar.xc_array_n.xsa_dac.xswdac_5.xi1.
                                            inv_bhv            1.00 
      800 xsar.xc_array_n.xsa_dac.xswdac_5.xi2.
                                            nand2_bhv          1.00 
      801 xsar.xc_array_n.xsa_dac.xswdac_5.xi19.
                                            nand2_bhv          1.00 
      802 xsar.xc_array_n.xsa_dac.xswdac_5.xswp.
                                            tgb                1.00 
      803 xsar.xc_array_n.xsa_dac.xswdac_5.xswn.
                                            tgb                1.00 
      804 xsar.xc_array_n.xsa_dac.xswdac_5.xswin.
                                            tgb                1.00 
      805 xsar.xc_array_n.xsa_dac.xswdac_6.xi7.
                                            inv_bhv            1.00 
      806 xsar.xc_array_n.xsa_dac.xswdac_6.xi3.
                                            inv_bhv            1.00 
      807 xsar.xc_array_n.xsa_dac.xswdac_6.xi20.
                                            inv_bhv            1.00 
      808 xsar.xc_array_n.xsa_dac.xswdac_6.xi1.
                                            inv_bhv            1.00 
      809 xsar.xc_array_n.xsa_dac.xswdac_6.xi2.
                                            nand2_bhv          1.00 
      810 xsar.xc_array_n.xsa_dac.xswdac_6.xi19.
                                            nand2_bhv          1.00 
      811 xsar.xc_array_n.xsa_dac.xswdac_6.xswp.
                                            tgb                1.00 
      812 xsar.xc_array_n.xsa_dac.xswdac_6.xswn.
                                            tgb                1.00 
      813 xsar.xc_array_n.xsa_dac.xswdac_6.xswin.
                                            tgb                1.00 
      814 xsar.xc_array_n.xsa_dac.xswdac_7.xi7.
                                            inv_bhv            1.00 
      815 xsar.xc_array_n.xsa_dac.xswdac_7.xi3.
                                            inv_bhv            1.00 
      816 xsar.xc_array_n.xsa_dac.xswdac_7.xi20.
                                            inv_bhv            1.00 
      817 xsar.xc_array_n.xsa_dac.xswdac_7.xi1.
                                            inv_bhv            1.00 
      818 xsar.xc_array_n.xsa_dac.xswdac_7.xi2.
                                            nand2_bhv          1.00 
      819 xsar.xc_array_n.xsa_dac.xswdac_7.xi19.
                                            nand2_bhv          1.00 
      820 xsar.xc_array_n.xsa_dac.xswdac_7.xswp.
                                            tgb                1.00 
      821 xsar.xc_array_n.xsa_dac.xswdac_7.xswn.
                                            tgb                1.00 
      822 xsar.xc_array_n.xsa_dac.xswdac_7.xswin.
                                            tgb                1.00 
      823 xsar.xc_array_n.xsa_dac.xi1.xp1.
                                            pmos_b             1.00 
      824 xsar.xc_array_n.xsa_dac.xi1.xn1.
                                            nmos_b             1.00 
      825 xsar.xsa_logic.xdata3.xi1.xp1.  pmos_b             1.00 
      826 xsar.xsa_logic.xdata3.xi1.xn1.  nmos_b             1.00 
      827 xsar.xsa_logic.xdata3.xi42.xn1. nmos_b             1.00 
      828 xsar.xsa_logic.xdata3.xi42.xi9. nmos_b             1.00 
      829 xsar.xsa_logic.xdata3.xi42.xp1. pmos_b             1.00 
      830 xsar.xsa_logic.xdata3.xi42.xi10.
                                            pmos_b             1.00 
      831 xsar.xsa_logic.xdata3.xi43.xn1. nmos_b             1.00 
      832 xsar.xsa_logic.xdata3.xi43.xi9. nmos_b             1.00 
      833 xsar.xsa_logic.xdata3.xi43.xp1. pmos_b             1.00 
      834 xsar.xsa_logic.xdata3.xi43.xi10.
                                            pmos_b             1.00 
      835 xsar.xsa_logic.xdata3.xi31.xn1. nmos_b             1.00 
      836 xsar.xsa_logic.xdata3.xi31.xi9. nmos_b             1.00 
      837 xsar.xsa_logic.xdata3.xi31.xp1. pmos_b             1.00 
      838 xsar.xsa_logic.xdata3.xi31.xi10.
                                            pmos_b             1.00 
      839 xsar.xsa_logic.xdata3.xi37.xn1. nmos_b             1.00 
      840 xsar.xsa_logic.xdata3.xi37.xi9. nmos_b             1.00 
      841 xsar.xsa_logic.xdata3.xi37.xp1. pmos_b             1.00 
      842 xsar.xsa_logic.xdata3.xi37.xi10.
                                            pmos_b             1.00 
      843 xsar.xsa_logic.xdata2.xi1.xp1.  pmos_b             1.00 
      844 xsar.xsa_logic.xdata2.xi1.xn1.  nmos_b             1.00 
      845 xsar.xsa_logic.xdata2.xi42.xn1. nmos_b             1.00 
      846 xsar.xsa_logic.xdata2.xi42.xi9. nmos_b             1.00 
      847 xsar.xsa_logic.xdata2.xi42.xp1. pmos_b             1.00 
      848 xsar.xsa_logic.xdata2.xi42.xi10.
                                            pmos_b             1.00 
      849 xsar.xsa_logic.xdata2.xi43.xn1. nmos_b             1.00 
      850 xsar.xsa_logic.xdata2.xi43.xi9. nmos_b             1.00 
      851 xsar.xsa_logic.xdata2.xi43.xp1. pmos_b             1.00 
      852 xsar.xsa_logic.xdata2.xi43.xi10.
                                            pmos_b             1.00 
      853 xsar.xsa_logic.xdata2.xi31.xn1. nmos_b             1.00 
      854 xsar.xsa_logic.xdata2.xi31.xi9. nmos_b             1.00 
      855 xsar.xsa_logic.xdata2.xi31.xp1. pmos_b             1.00 
      856 xsar.xsa_logic.xdata2.xi31.xi10.
                                            pmos_b             1.00 
      857 xsar.xsa_logic.xdata2.xi37.xn1. nmos_b             1.00 
      858 xsar.xsa_logic.xdata2.xi37.xi9. nmos_b             1.00 
      859 xsar.xsa_logic.xdata2.xi37.xp1. pmos_b             1.00 
      860 xsar.xsa_logic.xdata2.xi37.xi10.
                                            pmos_b             1.00 
      861 xsar.xsa_logic.xdata1.xi1.xp1.  pmos_b             1.00 
      862 xsar.xsa_logic.xdata1.xi1.xn1.  nmos_b             1.00 
      863 xsar.xsa_logic.xdata1.xi42.xn1. nmos_b             1.00 
      864 xsar.xsa_logic.xdata1.xi42.xi9. nmos_b             1.00 
      865 xsar.xsa_logic.xdata1.xi42.xp1. pmos_b             1.00 
      866 xsar.xsa_logic.xdata1.xi42.xi10.
                                            pmos_b             1.00 
      867 xsar.xsa_logic.xdata1.xi43.xn1. nmos_b             1.00 
      868 xsar.xsa_logic.xdata1.xi43.xi9. nmos_b             1.00 
      869 xsar.xsa_logic.xdata1.xi43.xp1. pmos_b             1.00 
      870 xsar.xsa_logic.xdata1.xi43.xi10.
                                            pmos_b             1.00 
      871 xsar.xsa_logic.xdata1.xi31.xn1. nmos_b             1.00 
      872 xsar.xsa_logic.xdata1.xi31.xi9. nmos_b             1.00 
      873 xsar.xsa_logic.xdata1.xi31.xp1. pmos_b             1.00 
      874 xsar.xsa_logic.xdata1.xi31.xi10.
                                            pmos_b             1.00 
      875 xsar.xsa_logic.xdata1.xi37.xn1. nmos_b             1.00 
      876 xsar.xsa_logic.xdata1.xi37.xi9. nmos_b             1.00 
      877 xsar.xsa_logic.xdata1.xi37.xp1. pmos_b             1.00 
      878 xsar.xsa_logic.xdata1.xi37.xi10.
                                            pmos_b             1.00 
      879 xsar.xsa_logic.xdata0.xi1.xp1.  pmos_b             1.00 
      880 xsar.xsa_logic.xdata0.xi1.xn1.  nmos_b             1.00 
      881 xsar.xsa_logic.xdata0.xi42.xn1. nmos_b             1.00 
      882 xsar.xsa_logic.xdata0.xi42.xi9. nmos_b             1.00 
      883 xsar.xsa_logic.xdata0.xi42.xp1. pmos_b             1.00 
      884 xsar.xsa_logic.xdata0.xi42.xi10.
                                            pmos_b             1.00 
      885 xsar.xsa_logic.xdata0.xi43.xn1. nmos_b             1.00 
      886 xsar.xsa_logic.xdata0.xi43.xi9. nmos_b             1.00 
      887 xsar.xsa_logic.xdata0.xi43.xp1. pmos_b             1.00 
      888 xsar.xsa_logic.xdata0.xi43.xi10.
                                            pmos_b             1.00 
      889 xsar.xsa_logic.xdata0.xi31.xn1. nmos_b             1.00 
      890 xsar.xsa_logic.xdata0.xi31.xi9. nmos_b             1.00 
      891 xsar.xsa_logic.xdata0.xi31.xp1. pmos_b             1.00 
      892 xsar.xsa_logic.xdata0.xi31.xi10.
                                            pmos_b             1.00 
      893 xsar.xsa_logic.xdata0.xi37.xn1. nmos_b             1.00 
      894 xsar.xsa_logic.xdata0.xi37.xi9. nmos_b             1.00 
      895 xsar.xsa_logic.xdata0.xi37.xp1. pmos_b             1.00 
      896 xsar.xsa_logic.xdata0.xi37.xi10.
                                            pmos_b             1.00 
      897 xsar.xsa_logic.xdata5.xi1.xp1.  pmos_b             1.00 
      898 xsar.xsa_logic.xdata5.xi1.xn1.  nmos_b             1.00 
      899 xsar.xsa_logic.xdata5.xi42.xn1. nmos_b             1.00 
      900 xsar.xsa_logic.xdata5.xi42.xi9. nmos_b             1.00 
      901 xsar.xsa_logic.xdata5.xi42.xp1. pmos_b             1.00 
      902 xsar.xsa_logic.xdata5.xi42.xi10.
                                            pmos_b             1.00 
      903 xsar.xsa_logic.xdata5.xi43.xn1. nmos_b             1.00 
      904 xsar.xsa_logic.xdata5.xi43.xi9. nmos_b             1.00 
      905 xsar.xsa_logic.xdata5.xi43.xp1. pmos_b             1.00 
      906 xsar.xsa_logic.xdata5.xi43.xi10.
                                            pmos_b             1.00 
      907 xsar.xsa_logic.xdata5.xi31.xn1. nmos_b             1.00 
      908 xsar.xsa_logic.xdata5.xi31.xi9. nmos_b             1.00 
      909 xsar.xsa_logic.xdata5.xi31.xp1. pmos_b             1.00 
      910 xsar.xsa_logic.xdata5.xi31.xi10.
                                            pmos_b             1.00 
      911 xsar.xsa_logic.xdata5.xi37.xn1. nmos_b             1.00 
      912 xsar.xsa_logic.xdata5.xi37.xi9. nmos_b             1.00 
      913 xsar.xsa_logic.xdata5.xi37.xp1. pmos_b             1.00 
      914 xsar.xsa_logic.xdata5.xi37.xi10.
                                            pmos_b             1.00 
      915 xsar.xsa_logic.xrsh0.xi1.xp1.   pmos_b             1.00 
      916 xsar.xsa_logic.xrsh0.xi1.xn1.   nmos_b             1.00 
      917 xsar.xsa_logic.xrsh0.xi42.xn1.  nmos_b             1.00 
      918 xsar.xsa_logic.xrsh0.xi42.xi9.  nmos_b             1.00 
      919 xsar.xsa_logic.xrsh0.xi42.xp1.  pmos_b             1.00 
      920 xsar.xsa_logic.xrsh0.xi42.xi10. pmos_b             1.00 
      921 xsar.xsa_logic.xrsh0.xi43.xn1.  nmos_b             1.00 
      922 xsar.xsa_logic.xrsh0.xi43.xi9.  nmos_b             1.00 
      923 xsar.xsa_logic.xrsh0.xi43.xp1.  pmos_b             1.00 
      924 xsar.xsa_logic.xrsh0.xi43.xi10. pmos_b             1.00 
      925 xsar.xsa_logic.xrsh0.xi31.xn1.  nmos_b             1.00 
      926 xsar.xsa_logic.xrsh0.xi31.xi9.  nmos_b             1.00 
      927 xsar.xsa_logic.xrsh0.xi31.xp1.  pmos_b             1.00 
      928 xsar.xsa_logic.xrsh0.xi31.xi10. pmos_b             1.00 
      929 xsar.xsa_logic.xrsh0.xi37.xn1.  nmos_b             1.00 
      930 xsar.xsa_logic.xrsh0.xi37.xi9.  nmos_b             1.00 
      931 xsar.xsa_logic.xrsh0.xi37.xp1.  pmos_b             1.00 
      932 xsar.xsa_logic.xrsh0.xi37.xi10. pmos_b             1.00 
      933 xsar.xsa_logic.xrsh3.xi1.xp1.   pmos_b             1.00 
      934 xsar.xsa_logic.xrsh3.xi1.xn1.   nmos_b             1.00 
      935 xsar.xsa_logic.xrsh3.xi42.xn1.  nmos_b             1.00 
      936 xsar.xsa_logic.xrsh3.xi42.xi9.  nmos_b             1.00 
      937 xsar.xsa_logic.xrsh3.xi42.xp1.  pmos_b             1.00 
      938 xsar.xsa_logic.xrsh3.xi42.xi10. pmos_b             1.00 
      939 xsar.xsa_logic.xrsh3.xi43.xn1.  nmos_b             1.00 
      940 xsar.xsa_logic.xrsh3.xi43.xi9.  nmos_b             1.00 
      941 xsar.xsa_logic.xrsh3.xi43.xp1.  pmos_b             1.00 
      942 xsar.xsa_logic.xrsh3.xi43.xi10. pmos_b             1.00 
      943 xsar.xsa_logic.xrsh3.xi31.xn1.  nmos_b             1.00 
      944 xsar.xsa_logic.xrsh3.xi31.xi9.  nmos_b             1.00 
      945 xsar.xsa_logic.xrsh3.xi31.xp1.  pmos_b             1.00 
      946 xsar.xsa_logic.xrsh3.xi31.xi10. pmos_b             1.00 
      947 xsar.xsa_logic.xrsh3.xi37.xn1.  nmos_b             1.00 
      948 xsar.xsa_logic.xrsh3.xi37.xi9.  nmos_b             1.00 
      949 xsar.xsa_logic.xrsh3.xi37.xp1.  pmos_b             1.00 
      950 xsar.xsa_logic.xrsh3.xi37.xi10. pmos_b             1.00 
      951 xsar.xsa_logic.xrsh2.xi1.xp1.   pmos_b             1.00 
      952 xsar.xsa_logic.xrsh2.xi1.xn1.   nmos_b             1.00 
      953 xsar.xsa_logic.xrsh2.xi42.xn1.  nmos_b             1.00 
      954 xsar.xsa_logic.xrsh2.xi42.xi9.  nmos_b             1.00 
      955 xsar.xsa_logic.xrsh2.xi42.xp1.  pmos_b             1.00 
      956 xsar.xsa_logic.xrsh2.xi42.xi10. pmos_b             1.00 
      957 xsar.xsa_logic.xrsh2.xi43.xn1.  nmos_b             1.00 
      958 xsar.xsa_logic.xrsh2.xi43.xi9.  nmos_b             1.00 
      959 xsar.xsa_logic.xrsh2.xi43.xp1.  pmos_b             1.00 
      960 xsar.xsa_logic.xrsh2.xi43.xi10. pmos_b             1.00 
      961 xsar.xsa_logic.xrsh2.xi31.xn1.  nmos_b             1.00 
      962 xsar.xsa_logic.xrsh2.xi31.xi9.  nmos_b             1.00 
      963 xsar.xsa_logic.xrsh2.xi31.xp1.  pmos_b             1.00 
      964 xsar.xsa_logic.xrsh2.xi31.xi10. pmos_b             1.00 
      965 xsar.xsa_logic.xrsh2.xi37.xn1.  nmos_b             1.00 
      966 xsar.xsa_logic.xrsh2.xi37.xi9.  nmos_b             1.00 
      967 xsar.xsa_logic.xrsh2.xi37.xp1.  pmos_b             1.00 
      968 xsar.xsa_logic.xrsh2.xi37.xi10. pmos_b             1.00 
      969 xsar.xsa_logic.xrsh1.xi1.xp1.   pmos_b             1.00 
      970 xsar.xsa_logic.xrsh1.xi1.xn1.   nmos_b             1.00 
      971 xsar.xsa_logic.xrsh1.xi42.xn1.  nmos_b             1.00 
      972 xsar.xsa_logic.xrsh1.xi42.xi9.  nmos_b             1.00 
      973 xsar.xsa_logic.xrsh1.xi42.xp1.  pmos_b             1.00 
      974 xsar.xsa_logic.xrsh1.xi42.xi10. pmos_b             1.00 
      975 xsar.xsa_logic.xrsh1.xi43.xn1.  nmos_b             1.00 
      976 xsar.xsa_logic.xrsh1.xi43.xi9.  nmos_b             1.00 
      977 xsar.xsa_logic.xrsh1.xi43.xp1.  pmos_b             1.00 
      978 xsar.xsa_logic.xrsh1.xi43.xi10. pmos_b             1.00 
      979 xsar.xsa_logic.xrsh1.xi31.xn1.  nmos_b             1.00 
      980 xsar.xsa_logic.xrsh1.xi31.xi9.  nmos_b             1.00 
      981 xsar.xsa_logic.xrsh1.xi31.xp1.  pmos_b             1.00 
      982 xsar.xsa_logic.xrsh1.xi31.xi10. pmos_b             1.00 
      983 xsar.xsa_logic.xrsh1.xi37.xn1.  nmos_b             1.00 
      984 xsar.xsa_logic.xrsh1.xi37.xi9.  nmos_b             1.00 
      985 xsar.xsa_logic.xrsh1.xi37.xp1.  pmos_b             1.00 
      986 xsar.xsa_logic.xrsh1.xi37.xi10. pmos_b             1.00 
      987 xsar.xsa_logic.xrsh4.xi1.xp1.   pmos_b             1.00 
      988 xsar.xsa_logic.xrsh4.xi1.xn1.   nmos_b             1.00 
      989 xsar.xsa_logic.xrsh4.xi42.xn1.  nmos_b             1.00 
      990 xsar.xsa_logic.xrsh4.xi42.xi9.  nmos_b             1.00 
      991 xsar.xsa_logic.xrsh4.xi42.xp1.  pmos_b             1.00 
      992 xsar.xsa_logic.xrsh4.xi42.xi10. pmos_b             1.00 
      993 xsar.xsa_logic.xrsh4.xi43.xn1.  nmos_b             1.00 
      994 xsar.xsa_logic.xrsh4.xi43.xi9.  nmos_b             1.00 
      995 xsar.xsa_logic.xrsh4.xi43.xp1.  pmos_b             1.00 
      996 xsar.xsa_logic.xrsh4.xi43.xi10. pmos_b             1.00 
      997 xsar.xsa_logic.xrsh4.xi31.xn1.  nmos_b             1.00 
      998 xsar.xsa_logic.xrsh4.xi31.xi9.  nmos_b             1.00 
      999 xsar.xsa_logic.xrsh4.xi31.xp1.  pmos_b             1.00 
     1000 xsar.xsa_logic.xrsh4.xi31.xi10. pmos_b             1.00 
     1001 xsar.xsa_logic.xrsh4.xi37.xn1.  nmos_b             1.00 
     1002 xsar.xsa_logic.xrsh4.xi37.xi9.  nmos_b             1.00 
     1003 xsar.xsa_logic.xrsh4.xi37.xp1.  pmos_b             1.00 
     1004 xsar.xsa_logic.xrsh4.xi37.xi10. pmos_b             1.00 
     1005 xsar.xsa_logic.xdata7.xi1.xp1.  pmos_b             1.00 
     1006 xsar.xsa_logic.xdata7.xi1.xn1.  nmos_b             1.00 
     1007 xsar.xsa_logic.xdata7.xi42.xn1. nmos_b             1.00 
     1008 xsar.xsa_logic.xdata7.xi42.xi9. nmos_b             1.00 
     1009 xsar.xsa_logic.xdata7.xi42.xp1. pmos_b             1.00 
     1010 xsar.xsa_logic.xdata7.xi42.xi10.
                                            pmos_b             1.00 
     1011 xsar.xsa_logic.xdata7.xi43.xn1. nmos_b             1.00 
     1012 xsar.xsa_logic.xdata7.xi43.xi9. nmos_b             1.00 
     1013 xsar.xsa_logic.xdata7.xi43.xp1. pmos_b             1.00 
     1014 xsar.xsa_logic.xdata7.xi43.xi10.
                                            pmos_b             1.00 
     1015 xsar.xsa_logic.xdata7.xi31.xn1. nmos_b             1.00 
     1016 xsar.xsa_logic.xdata7.xi31.xi9. nmos_b             1.00 
     1017 xsar.xsa_logic.xdata7.xi31.xp1. pmos_b             1.00 
     1018 xsar.xsa_logic.xdata7.xi31.xi10.
                                            pmos_b             1.00 
[...]
 +   0:residual= 900.0000m    0:residual= 900.0000m    0:rst     =   0.     
 +   0:rst_b   =   1.8000     0:rst_matl=   0.         0:sa_0    =   1.8000 
 +   0:sa_1    =   1.8000     0:sa_2    =   1.8000     0:sa_3    =   1.8000 
 +   0:sa_4    =   1.8000     0:sa_5    =   1.8000     0:sa_6    =   1.8000 
 +   0:sa_7    =   1.8000     0:sa_b_0  =  36.0000f    0:sa_b_1  =  36.0000f
 +   0:sa_b_2  =  36.0000f    0:sa_b_3  =  36.0000f    0:sa_b_4  =  36.0000f
 +   0:sa_b_5  =  36.0000f    0:sa_b_6  =  36.0000f    0:sa_b_7  =  36.0000f
 +   0:vcm     = 900.0000m    0:vcm1    = 900.0000m    0:vrefn   =   0.     
 +   0:vrefp   =   1.8000     1:net017  =   1.8000     1:net22   =  18.0000f
 +   1:net8    =   1.8000     2:net017  =   1.8000     2:net22   =  18.0000f
 +   2:net8    =   1.8000     3:net017  =   1.8000     3:net22   =  18.0000f
 +   3:net8    =   1.8000     4:net017  =   1.8000     4:net22   =  18.0000f
 +   4:net8    =   1.8000     5:net017  =   1.8000     5:net22   =  18.0000f
 +   5:net8    =   1.8000     6:net017  =   1.8000     6:net22   =  18.0000f
 +   6:net8    =   1.8000     7:net017  =   1.8000     7:net22   =  18.0000f
 +   7:net8    =   1.8000     8:net017  =   1.8000     8:net22   =  18.0000f
 +   8:net8    =   1.8000     9:net23   =  18.0000f   10:net23   =  18.0000f
 +  11:net8    = 899.1009u   12:net8    = 899.1009u   13:clk_b   =   1.8000 
 +  13:cmp_inn = 899.1009u   13:cmp_inp = 899.1009u   13:cmp_out =   0.     
 +  13:db_0    =   1.8000    13:db_1    =   1.8000    13:db_2    =   1.8000 
 +  13:db_3    =   1.8000    13:db_4    =   1.8000    13:db_5    =   1.8000 
 +  13:db_6    =   1.8000    13:db_7    =   1.8000    13:n_sw_0  =  72.0000f
 +  13:n_sw_1  =  72.0000f   13:n_sw_2  =  72.0000f   13:n_sw_3  =  72.0000f
 +  13:n_sw_4  =  72.0000f   13:n_sw_5  =  72.0000f   13:n_sw_6  =  72.0000f
 +  13:n_sw_7  =  72.0000f   13:n_sw_b_0=   1.8000    13:n_sw_b_1=   1.8000 
 +  13:n_sw_b_2=   1.8000    13:n_sw_b_3=   1.8000    13:n_sw_b_4=   1.8000 
 +  13:n_sw_b_5=   1.8000    13:n_sw_b_6=   1.8000    13:n_sw_b_7=   1.8000 
 +  13:net23   =   1.8000    13:pdac    =  18.0000f   13:psamp_b =   1.8000 
 +  14:out_int1= 900.0000m   14:out_int1= 900.0000m   14:pvrefn  =  18.0000f
 +  14:pvrefn_b=   1.8000    14:pvrefp  =  18.0000f   14:pvrefp_b=   1.8000 
 +  15:net23   =  18.0000f   16:net23   =   1.8000    19:net23   =  18.0000f
 +  20:net23   =   1.8000    23:net23   =  18.0000f   24:net23   =   1.8000 
 +  27:net23   =  18.0000f   28:net23   =   1.8000    31:net23   =  18.0000f
 +  32:net23   =   1.8000    35:net23   =  18.0000f   36:net23   =   1.8000 
 +  39:net23   =  18.0000f   40:net23   =   1.8000    43:net23   =  18.0000f
 +  44:net23   =   1.8000    59:vout1   =   0.        60:dac_0   =   1.8000 
 +  60:dac_1   =   1.8000    60:dac_2   =   1.8000    60:dac_3   =   1.8000 
 +  60:dac_4   =   1.8000    60:dac_5   =   1.8000    60:dac_6   =   1.8000 
 +  60:dac_7   =   1.8000    60:net023  = 898.2031n   60:net30   = 899.1013u
 +  61:dac_0   =  36.0000f   61:dac_1   =  36.0000f   61:dac_2   =  36.0000f
 +  61:dac_3   =  36.0000f   61:dac_4   =  36.0000f   61:dac_5   =  36.0000f
 +  61:dac_6   =  36.0000f   61:dac_7   =  36.0000f   61:net023  = 898.2031n
 +  61:net30   = 899.1013u   62:net383  =   1.8000    62:q0      =  18.0000f
 +  62:q1      =  18.0000f   62:q2      =  18.0000f   62:q3      =  18.0000f
 +  62:q4      =  18.0000f   62:q5      =  18.0000f   62:q6      =  18.0000f
 +  62:q7      =  18.0000f   62:qb0     =   1.8000    62:qb1     =   1.8000 
 +  62:qb2     =   1.8000    62:qb3     =   1.8000    62:qb4     =   1.8000 
 +  62:qb5     =   1.8000    62:qb6     =   1.8000    62:qb7     =   1.8000 
 +  63:clkb    =   1.8000    63:dff1    =  18.0000f   63:dff2    =   1.8000 
 +  63:dff3    =  54.0000f   63:net41   =  18.0000f   63:net54   =   1.8000 
 +  63:net69   =   1.8000    64:clkb    =   1.8000    64:dff1    =  18.0000f
 +  64:dff2    =   1.8000    64:dff3    =  54.0000f   64:net41   =  18.0000f
 +  64:net54   =   1.8000    64:net69   =   1.8000    65:clkb    =   1.8000 
 +  65:dff1    =  18.0000f   65:dff2    =   1.8000    65:dff3    =  54.0000f
 +  65:net41   =  18.0000f   65:net54   =   1.8000    65:net69   =   1.8000 
 +  66:clkb    =   1.8000    66:dff1    =  18.0000f   66:dff2    =   1.8000 
 +  66:dff3    =  54.0000f   66:net41   =  18.0000f   66:net54   =   1.8000 
 +  66:net69   =   1.8000    67:clkb    =   1.8000    67:dff1    =  18.0000f
 +  67:dff2    =   1.8000    67:dff3    =  54.0000f   67:net41   =  18.0000f
 +  67:net54   =   1.8000    67:net69   =   1.8000    68:clkb    =   1.8000 
 +  68:dff1    =  18.0000f   68:dff2    =   1.8000    68:dff3    =  54.0000f
 +  68:net41   =  18.0000f   68:net54   =   1.8000    68:net69   =   1.8000 
 +  69:clkb    =   1.8000    69:dff1    =  18.0000f   69:dff2    =   1.8000 
 +  69:dff3    =  54.0000f   69:net41   =  18.0000f   69:net54   =   1.8000 
 +  69:net69   =   1.8000    70:clkb    =   1.8000    70:dff1    =  18.0000f
 +  70:dff2    =   1.8000    70:dff3    =  54.0000f   70:net41   =  18.0000f
 +  70:net54   =   1.8000    70:net69   =   1.8000    71:net8    =  18.0000f
 +  72:net23   =   1.8000    73:net23   =  18.0000f   74:net23   =   1.8000 
 +  75:cinn    = 449.7751u   75:cinp    = 449.7751u   75:dacn    = 899.1009u
 +  75:dacp    = 899.1009u   75:opin    = 449.7751u   75:opip    = 449.7751u
 +  76:cinn    = 449.7751u   76:cinp    = 449.7751u   76:dacn    = 899.1009u
 +  76:dacp    = 899.1009u   76:opin    = 449.7751u   76:opip    = 449.7751u
 +  77:amp_n   = 900.0000m   77:amp_p   = 900.0000m   77:d_b     =  18.0000f
 +  77:net0107 = 899.1009u   77:net0137 = 899.1009u   77:net0155 = 899.1009u
 +  77:net0161 = 899.1009u   77:net082  = 899.1009u   77:net088  = 899.1009u
 +  77:opin    = 899.1009u   77:opip    = 899.1009u   78:d_b     =  18.0000f
 +  78:net43   =   1.8000    78:net48   =   1.8000   111:pdac_b  =   1.8000 
 + 113:pdac_b  =   1.8000   115:net23   =   1.8000   116:net16   =   1.8000 
 + 117:net16   =   1.8000   118:net16   =   1.8000   119:net16   =   1.8000 
 + 120:net16   =   1.8000   121:net16   =   1.8000   122:net16   =   1.8000 
 + 123:net16   =   1.8000   124:net8    =  36.0000f  125:net8    =  36.0000f
 + 126:net8    =  36.0000f  127:net8    =  36.0000f  128:net8    =  36.0000f
 + 129:net8    =  36.0000f  130:net8    =  36.0000f  131:net8    =  36.0000f
 + 132:clkb    =  18.0000f  132:dff1    =   1.8000   132:dff2    =  18.0000f
 + 132:dff3    =  18.0000f  132:net41   =   1.8000   132:net54   =   1.8000 
 + 132:net69   =  18.0000f  133:clkb    =  18.0000f  133:dff1    =   1.8000 
 + 133:dff2    =  18.0000f  133:dff3    =  18.0000f  133:net41   =   1.8000 
 + 133:net54   =   1.8000   133:net69   =  18.0000f  134:clkb    =  18.0000f
 + 134:dff1    =   1.8000   134:dff2    =  18.0000f  134:dff3    =  18.0000f
 + 134:net41   =   1.8000   134:net54   =   1.8000   134:net69   =  18.0000f
 + 135:clkb    =  18.0000f  135:dff1    =   1.8000   135:dff2    =  18.0000f
 + 135:dff3    =  18.0000f  135:net41   =   1.8000   135:net54   =   1.8000 
 + 135:net69   =  18.0000f  136:clkb    =  18.0000f  136:dff1    =   1.8000 
 + 136:dff2    =  18.0000f  136:dff3    =  18.0000f  136:net41   =   1.8000 
 + 136:net54   =   1.8000   136:net69   =  18.0000f  137:clkb    =  18.0000f
 + 137:dff1    =  18.0000f  137:dff2    =   1.8000   137:dff3    =   1.8000 
 + 137:net41   =  18.0000f  137:net54   =  18.0000f  137:net69   =   1.8000 
 + 138:clkb    =  18.0000f  138:dff1    =  18.0000f  138:dff2    =   1.8000 
 + 138:dff3    =   1.8000   138:net41   =  18.0000f  138:net54   =  18.0000f
 + 138:net69   =   1.8000   139:clkb    =  18.0000f  139:dff1    =  18.0000f
 + 139:dff2    =   1.8000   139:dff3    =   1.8000   139:net41   =  18.0000f
 + 139:net54   =  18.0000f  139:net69   =   1.8000   140:clkb    =  18.0000f
 + 140:dff1    =  18.0000f  140:dff2    =   1.8000   140:dff3    =   1.8000 
 + 140:net41   =  18.0000f  140:net54   =  18.0000f  140:net69   =   1.8000 
 + 141:clkb    =  18.0000f  141:dff1    =  18.0000f  141:dff2    =   1.8000 
 + 141:dff3    =   1.8000   141:net41   =  18.0000f  141:net54   =  18.0000f
 + 141:net69   =   1.8000   142:clkb    =  18.0000f  142:dff1    =   1.8000 
 + 142:dff2    =  18.0000f  142:dff3    =  18.0000f  142:net41   =   1.8000 
 + 142:net54   =   1.8000   142:net69   =  18.0000f  143:clkb    =  18.0000f
 + 143:dff1    =  18.0000f  143:dff2    =   1.8000   143:dff3    =   1.8000 
 + 143:net41   =  18.0000f  143:net54   =  18.0000f  143:net69   =   1.8000 
 + 144:clkb    =  18.0000f  144:dff1    =   1.8000   144:dff2    =  18.0000f
 + 144:dff3    =  18.0000f  144:net41   =   1.8000   144:net54   =   1.8000 
 + 144:net69   =  18.0000f  145:clkb    =  18.0000f  145:dff1    =   1.8000 
 + 145:dff2    =  18.0000f  145:dff3    =  18.0000f  145:net41   =   1.8000 
 + 145:net54   =   1.8000   145:net69   =  18.0000f  146:clkb    =  18.0000f
 + 146:dff1    =  18.0000f  146:dff2    =   1.8000   146:dff3    =   1.8000 
 + 146:net41   =  18.0000f  146:net54   =  18.0000f  146:net69   =   1.8000 
 + 147:clkb    =  18.0000f  147:dff1    =  18.0000f  147:dff2    =   1.8000 
 + 147:dff3    =   1.8000   147:net41   =  18.0000f  147:net54   =  18.0000f
 + 147:net69   =   1.8000   148:net23   =   1.8000   153:net16   =  36.0000f
 + 154:net16   =  54.0000f  155:net16   =   1.8000   156:net16   =   1.8000 
 + 157:net23   =   1.8000   162:net16   =  36.0000f  163:net16   =  54.0000f
 + 164:net16   =   1.8000   165:net16   =   1.8000   166:net23   =   1.8000 
 + 171:net16   =  36.0000f  172:net16   =  54.0000f  173:net16   =   1.8000 
 + 174:net16   =   1.8000   175:net23   =   1.8000   180:net16   =  36.0000f
 + 181:net16   =  54.0000f  182:net16   =   1.8000   183:net16   =   1.8000 
 + 184:net23   =   1.8000   189:net16   =  36.0000f  190:net16   =  54.0000f
 + 191:net16   =   1.8000   192:net16   =   1.8000   193:net23   =   1.8000 
 + 198:net16   =  36.0000f  199:net16   =  54.0000f  200:net16   =   1.8000 
 + 201:net16   =   1.8000   202:net23   =   1.8000   207:net16   =  36.0000f
 + 208:net16   =  54.0000f  209:net16   =   1.8000   210:net16   =   1.8000 
 + 211:net23   =   1.8000   216:net16   =  36.0000f  217:net16   =  54.0000f
 + 218:net16   =   1.8000   219:net16   =   1.8000   239:vcmi    = 900.0000m
 + 250:vcmi    = 900.0000m  251:on1     =   0.       251:op1     =   0.     
 + 251:vcm1    = 900.0000m  252:net22   = 1.800e-27  253:net23   =   1.8000 
 + 268:net23   =   1.8000   269:net23   =  18.0000f  270:net23   =  18.0000f
 + 271:net23   =  18.0000f  272:net23   =   1.8000   273:net8    = 899.1009u
 + 274:net8    =   1.8000   275:net049  =   1.8000   275:net054  =  72.0000f
 + 275:pvrefn  =  18.0000f  275:pvrefn_b=   1.8000   275:pvrefp  =   1.8000 
 + 275:pvrefp_b=  18.0000f  276:net049  =   1.8000   276:net054  =  72.0000f
 + 276:pvrefn  =  18.0000f  276:pvrefn_b=   1.8000   276:pvrefp  =   1.8000 
 + 276:pvrefp_b=  18.0000f  277:net049  =   1.8000   277:net054  =  72.0000f
 + 277:pvrefn  =  18.0000f  277:pvrefn_b=   1.8000   277:pvrefp  =   1.8000 
 + 277:pvrefp_b=  18.0000f  278:net049  =   1.8000   278:net054  =  72.0000f
 + 278:pvrefn  =  18.0000f  278:pvrefn_b=   1.8000   278:pvrefp  =   1.8000 
 + 278:pvrefp_b=  18.0000f  279:net049  =   1.8000   279:net054  =  72.0000f
 + 279:pvrefn  =  18.0000f  279:pvrefn_b=   1.8000   279:pvrefp  =   1.8000 
 + 279:pvrefp_b=  18.0000f  280:net049  =   1.8000   280:net054  =  72.0000f
 + 280:pvrefn  =  18.0000f  280:pvrefn_b=   1.8000   280:pvrefp  =   1.8000 
 + 280:pvrefp_b=  18.0000f  281:net049  =   1.8000   281:net054  =  72.0000f
 + 281:pvrefn  =  18.0000f  281:pvrefn_b=   1.8000   281:pvrefp  =   1.8000 
 + 281:pvrefp_b=  18.0000f  282:net049  =   1.8000   282:net054  =  72.0000f
 + 282:pvrefn  =  18.0000f  282:pvrefn_b=   1.8000   282:pvrefp  =   1.8000 
 + 282:pvrefp_b=  18.0000f  283:net23   =   1.8000   286:net049  =  72.0000f
 + 286:net054  =   1.8000   286:pvrefn  =   1.8000   286:pvrefn_b=  18.0000f
 + 286:pvrefp  =  18.0000f  286:pvrefp_b=   1.8000   287:net049  =  72.0000f
 + 287:net054  =   1.8000   287:pvrefn  =   1.8000   287:pvrefn_b=  18.0000f
 + 287:pvrefp  =  18.0000f  287:pvrefp_b=   1.8000   288:net049  =  72.0000f
 + 288:net054  =   1.8000   288:pvrefn  =   1.8000   288:pvrefn_b=  18.0000f
 + 288:pvrefp  =  18.0000f  288:pvrefp_b=   1.8000   289:net049  =  72.0000f
 + 289:net054  =   1.8000   289:pvrefn  =   1.8000   289:pvrefn_b=  18.0000f
 + 289:pvrefp  =  18.0000f  289:pvrefp_b=   1.8000   290:net049  =  72.0000f
 + 290:net054  =   1.8000   290:pvrefn  =   1.8000   290:pvrefn_b=  18.0000f
 + 290:pvrefp  =  18.0000f  290:pvrefp_b=   1.8000   291:net049  =  72.0000f
 + 291:net054  =   1.8000   291:pvrefn  =   1.8000   291:pvrefn_b=  18.0000f
 + 291:pvrefp  =  18.0000f  291:pvrefp_b=   1.8000   292:net049  =  72.0000f
 + 292:net054  =   1.8000   292:pvrefn  =   1.8000   292:pvrefn_b=  18.0000f
 + 292:pvrefp  =  18.0000f  292:pvrefp_b=   1.8000   293:net049  =  72.0000f
 + 293:net054  =   1.8000   293:pvrefn  =   1.8000   293:pvrefn_b=  18.0000f
 + 293:pvrefp  =  18.0000f  293:pvrefp_b=   1.8000   294:net23   =   1.8000 
 + 363:net23   =  18.0000f  368:net16   =   1.8000   369:net16   =  36.0000f
 + 370:net16   =  36.0000f  371:net16   =   1.8000   372:net23   =  18.0000f
 + 377:net16   =   1.8000   378:net16   =  36.0000f  379:net16   =  36.0000f
 + 380:net16   =   1.8000   381:net23   =  18.0000f  386:net16   =   1.8000 
 + 387:net16   =  36.0000f  388:net16   =  36.0000f  389:net16   =   1.8000 
 + 390:net23   =  18.0000f  395:net16   =   1.8000   396:net16   =  36.0000f
 + 397:net16   =  36.0000f  398:net16   =   1.8000   399:net23   =  18.0000f
 + 404:net16   =   1.8000   405:net16   =  36.0000f  406:net16   =  36.0000f
 + 407:net16   =   1.8000   408:net23   =  18.0000f  413:net16   =  36.0000f
 + 414:net16   =   1.8000   415:net16   =   1.8000   416:net16   =  36.0000f
 + 417:net23   =  18.0000f  422:net16   =  36.0000f  423:net16   =   1.8000 
 + 424:net16   =   1.8000   425:net16   =  36.0000f  426:net23   =  18.0000f
 + 431:net16   =  36.0000f  432:net16   =   1.8000   433:net16   =   1.8000 
 + 434:net16   =  36.0000f  435:net23   =  18.0000f  440:net16   =  36.0000f
 + 441:net16   =   1.8000   442:net16   =   1.8000   443:net16   =  36.0000f
 + 444:net23   =  18.0000f  449:net16   =  36.0000f  450:net16   =   1.8000 
 + 451:net16   =   1.8000   452:net16   =  36.0000f  453:net23   =  18.0000f
 + 458:net16   =   1.8000   459:net16   =  36.0000f  460:net16   =  36.0000f
 + 461:net16   =   1.8000   462:net23   =  18.0000f  467:net16   =  36.0000f
 + 468:net16   =   1.8000   469:net16   =   1.8000   470:net16   =  36.0000f
 + 471:net23   =  18.0000f  476:net16   =   1.8000   477:net16   =  36.0000f
 + 478:net16   =  36.0000f  479:net16   =   1.8000   480:net23   =  18.0000f
 + 485:net16   =   1.8000   486:net16   =  36.0000f  487:net16   =  36.0000f
 + 488:net16   =   1.8000   489:net23   =  18.0000f  494:net16   =  36.0000f
 + 495:net16   =   1.8000   496:net16   =   1.8000   497:net16   =  36.0000f
 + 498:net23   =  18.0000f  503:net16   =  36.0000f  504:net16   =   1.8000 
 + 505:net16   =   1.8000   506:net16   =  36.0000f  655:net275  =  18.0000f
 + 656:vout1   =   0.       677:net23   =   1.8000   678:net23   =  18.0000f
 + 679:net23   =   1.8000   680:net23   =  18.0000f  681:net8    =  18.0000f
 + 682:net8    =  36.0000f  686:net23   =   1.8000   687:net23   =  18.0000f
 + 688:net23   =   1.8000   689:net23   =  18.0000f  690:net8    =  18.0000f
 + 691:net8    =  36.0000f  695:net23   =   1.8000   696:net23   =  18.0000f
 + 697:net23   =   1.8000   698:net23   =  18.0000f  699:net8    =  18.0000f
 + 700:net8    =  36.0000f  704:net23   =   1.8000   705:net23   =  18.0000f
 + 706:net23   =   1.8000   707:net23   =  18.0000f  708:net8    =  18.0000f
 + 709:net8    =  36.0000f  713:net23   =   1.8000   714:net23   =  18.0000f
 + 715:net23   =   1.8000   716:net23   =  18.0000f  717:net8    =  18.0000f
 + 718:net8    =  36.0000f  722:net23   =   1.8000   723:net23   =  18.0000f
 + 724:net23   =   1.8000   725:net23   =  18.0000f  726:net8    =  18.0000f
 + 727:net8    =  36.0000f  731:net23   =   1.8000   732:net23   =  18.0000f
 + 733:net23   =   1.8000   734:net23   =  18.0000f  735:net8    =  18.0000f
 + 736:net8    =  36.0000f  740:net23   =   1.8000   741:net23   =  18.0000f
 + 742:net23   =   1.8000   743:net23   =  18.0000f  744:net8    =  18.0000f
 + 745:net8    =  36.0000f  751:net23   =  18.0000f  752:net23   =   1.8000 
 + 753:net23   =  18.0000f  754:net23   =   1.8000   755:net8    =  36.0000f
 + 756:net8    =  18.0000f  760:net23   =  18.0000f  761:net23   =   1.8000 
 + 762:net23   =  18.0000f  763:net23   =   1.8000   764:net8    =  36.0000f
 + 765:net8    =  18.0000f  769:net23   =  18.0000f  770:net23   =   1.8000 
 + 771:net23   =  18.0000f  772:net23   =   1.8000   773:net8    =  36.0000f
 + 774:net8    =  18.0000f  778:net23   =  18.0000f  779:net23   =   1.8000 
 + 780:net23   =  18.0000f  781:net23   =   1.8000   782:net8    =  36.0000f
 + 783:net8    =  18.0000f  787:net23   =  18.0000f  788:net23   =   1.8000 
 + 789:net23   =  18.0000f  790:net23   =   1.8000   791:net8    =  36.0000f
 + 792:net8    =  18.0000f  796:net23   =  18.0000f  797:net23   =   1.8000 
 + 798:net23   =  18.0000f  799:net23   =   1.8000   800:net8    =  36.0000f
 + 801:net8    =  18.0000f  805:net23   =  18.0000f  806:net23   =   1.8000 
 + 807:net23   =  18.0000f  808:net23   =   1.8000   809:net8    =  36.0000f
 + 810:net8    =  18.0000f  814:net23   =  18.0000f  815:net23   =   1.8000 
 + 816:net23   =  18.0000f  817:net23   =   1.8000   818:net8    =  36.0000f
 + 819:net8    =  18.0000f 1113:net017  =   1.8000  1113:net22   =  18.0000f
 +1113:net8    =   1.8000  1114:net017  =   1.8000  1114:net22   =  18.0000f
 +1114:net8    =   1.8000  1371:net23   =  18.0000f 1372:net23   =   1.8000 
 +1375:net23   =  18.0000f 1376:net23   =   1.8000 

 **error** stop simulation by signal SIGINT = 2

 ******  
 *behavior simulation

 ****** job statistics summary tnom=  25.000 temp=  27.000 ******
  
 ******  Machine Information  ******
 CPU:
 model name	: Intel(R) Xeon(R) Silver 4110 CPU @ 2.10GHz
 cpu MHz	: 2100.000
  
 OS:
 Linux version 3.10.0-957.el7.x86_64 (mockbuild@kbuilder.bsys.centos.org) (gcc version 4.8.5 20150623 (Red Hat 4.8.5-36) (GCC) ) #1 SMP Thu Nov 8 23:39:32 UTC 2018


  ******  HSPICE Threads Information  ******

  Command Line Threads Count :     1
  Available CPU Count        :    32
  Actual Threads Count       :     1


  ******  Circuit Statistics  ******
  # nodes       =     744 # elements   =    4716
  # resistors   =    2291 # capacitors =    1342 # inductors   =       0
  # mutual_inds =       0 # vccs       =    1048 # vcvs        =      12
  # cccs        =       0 # ccvs       =       0 # volt_srcs   =      23
  # curr_srcs   =       0 # diodes     =       0 # bjts        =       0
  # jfets       =       0 # mosfets    =       0 # U elements  =       0
  # T elements  =       0 # W elements =       0 # B elements  =       0
  # S elements  =       0 # P elements =       0 # va device   =       0
  # vector_srcs =       0 # N elements =       0


  ******  Runtime Statistics (seconds)  ******

  analysis           time    # points   tot. iter  conv.iter
  op point           0.02           1          14
  transient          0.00       12803           0           0 rev=         0
  readin             0.04
  errchk             0.08
  setup              0.02
  output             0.00


           peak memory used        329.04 megabytes
           total cpu time         3939.82 seconds
           total elapsed time     3961.16 seconds
           job started at     15:27:34 11/22/2019
           job ended   at     16:33:35 11/22/2019


 lic: Release hspice token(s) 
 lic: total license checkout elapse time:        0.43(s)
