Using: /usr/cad/synopsys/hspice/cur/hspice/linux64/hspice bhv4.sp
 ****** HSPICE -- O-2018.09 linux64 (Aug 26 2018) ******                        
  Copyright (c) 1986 - 2019 by Synopsys, Inc. All Rights Reserved.              
  This software and the associated documentation are proprietary
  to Synopsys, Inc. This software may only be used in accordance
  with the terms and conditions of a written license agreement with
  Synopsys, Inc. All other use, reproduction, or distribution of
  this software is strictly prohibited.
  Input File: bhv4.sp                                                           
  Command line options: /usr/cad/synopsys/hspice/cur/hspice/linux64/hspice bhv4.sp
 lic:  
 lic: FLEXlm: SDK_11.6.9.6 
 lic: USER:   ychuang              HOSTNAME: adc 
 lic: HOSTID: "b026281535a3"       PID:      373922 
 lic: Using FLEXlm license file: 
 lic: 26585@lsnctu 
 lic: Checkout 1 hspice 
 lic: License/Maintenance for hspice will expire on 14-may-2022/2018.09 
 lic: 113(in_use)/190(total) FLOATING license(s) on SERVER 26585@lsnctu 
 lic:   

 **warning** RUNLVL=0 option detected. RUNLVL=0 is automatically switched to RUNLVL=5 from Release H-2013.03-SP1. RUNLVL=0 is a legacy setting with poor runtime performance.


  **warning** (bhv4.sp:60) Unrecognized output type for xsa_logic.v in .print or .probe; The line is ignored.
1****** HSPICE -- O-2018.09 linux64 (Aug 26 2018) ******                        
 ******  
 * idc_mod simulation

 ****** circuit name directory
 circuit number to circuit name directory
   number circuitname                     definition         multiplier
        0 main circuit
        1 xcmp.                           vcvs_cmp           1.00 
        2 xc_array_p.                     sa_8bit_c_array_with_dac_monotonic
                                                                 1.00 
        3 xc_array_n.                     sa_8bit_c_array_with_dac_monotonic
                                                                 1.00 
        4 xsa_logic.                      sa_logic_8bit_monotonic
                                                                 1.00 
        5 xdffout_7.                      dff_set_rst_schematic
                                                                 1.00 
        6 xdffout_6.                      dff_set_rst_schematic
                                                                 1.00 
        7 xdffout_5.                      dff_set_rst_schematic
                                                                 1.00 
        8 xdffout_4.                      dff_set_rst_schematic
                                                                 1.00 
        9 xdffout_3.                      dff_set_rst_schematic
                                                                 1.00 
       10 xdffout_2.                      dff_set_rst_schematic
                                                                 1.00 
       11 xdffout_1.                      dff_set_rst_schematic
                                                                 1.00 
       12 xdffout_0.                      dff_set_rst_schematic
                                                                 1.00 
       13 xi7.                            nand2_bhv          1.00 
       14 xi28.                           inv_bhv            1.00 
       15 xi6.                            inv_bhv            1.00 
       16 xi5.                            inv_bhv            1.00 
       17 xc_array_p.xsa_dac.             sa_dac_8bit        1.00 
       18 xc_array_p.xswvcmp.             tgb                1.00 
       19 xc_array_n.xsa_dac.             sa_dac_8bit        1.00 
       20 xc_array_n.xswvcmp.             tgb                1.00 
       21 xsa_logic.xi36.                 inv_bhv            1.00 
       22 xsa_logic.xi19.                 nor2_bhv           1.00 
       23 xsa_logic.xi23.                 nor2_bhv           1.00 
       24 xsa_logic.xi22.                 nor2_bhv           1.00 
       25 xsa_logic.xi26.                 nor2_bhv           1.00 
       26 xsa_logic.xi27.                 nor2_bhv           1.00 
       27 xsa_logic.xi29.                 nor2_bhv           1.00 
       28 xsa_logic.xi32.                 nor2_bhv           1.00 
       29 xsa_logic.xi33.                 nor2_bhv           1.00 
       30 xsa_logic.xi24.                 nand2_bhv          1.00 
       31 xsa_logic.xi20.                 nand2_bhv          1.00 
       32 xsa_logic.xi21.                 nand2_bhv          1.00 
       33 xsa_logic.xi25.                 nand2_bhv          1.00 
       34 xsa_logic.xi28.                 nand2_bhv          1.00 
       35 xsa_logic.xi30.                 nand2_bhv          1.00 
       36 xsa_logic.xi31.                 nand2_bhv          1.00 
       37 xsa_logic.xi34.                 nand2_bhv          1.00 
       38 xsa_logic.xdata3.               dff_set_rst        1.00 
       39 xsa_logic.xdata2.               dff_set_rst        1.00 
       40 xsa_logic.xdata1.               dff_set_rst        1.00 
       41 xsa_logic.xdata0.               dff_set_rst        1.00 
       42 xsa_logic.xdata5.               dff_set_rst        1.00 
       43 xsa_logic.xrsh0.                dff_set_rst        1.00 
       44 xsa_logic.xrsh3.                dff_set_rst        1.00 
       45 xsa_logic.xrsh2.                dff_set_rst        1.00 
       46 xsa_logic.xrsh1.                dff_set_rst        1.00 
       47 xsa_logic.xrsh4.                dff_set_rst        1.00 
       48 xsa_logic.xdata7.               dff_set_rst        1.00 
       49 xsa_logic.xrsh5.                dff_set_rst        1.00 
       50 xsa_logic.xdata6.               dff_set_rst        1.00 
       51 xsa_logic.xdata4.               dff_set_rst        1.00 
       52 xsa_logic.xrsh6.                dff_set_rst        1.00 
       53 xsa_logic.xrsh7.                dff_set_rst        1.00 
       54 xdffout_7.xi1.                  inv_bhv            1.00 
       55 xdffout_7.xi40.                 tgb                1.00 
       56 xdffout_7.xi34.                 tgb                1.00 
       57 xdffout_7.xi41.                 tgb                1.00 
       58 xdffout_7.xsw1.                 tgb                1.00 
       59 xdffout_7.xi42.                 nor2_bhv           1.00 
       60 xdffout_7.xi43.                 nor2_bhv           1.00 
       61 xdffout_7.xi31.                 nor2_bhv           1.00 
       62 xdffout_7.xi37.                 nor2_bhv           1.00 
       63 xdffout_6.xi1.                  inv_bhv            1.00 
       64 xdffout_6.xi40.                 tgb                1.00 
       65 xdffout_6.xi34.                 tgb                1.00 
       66 xdffout_6.xi41.                 tgb                1.00 
       67 xdffout_6.xsw1.                 tgb                1.00 
       68 xdffout_6.xi42.                 nor2_bhv           1.00 
       69 xdffout_6.xi43.                 nor2_bhv           1.00 
       70 xdffout_6.xi31.                 nor2_bhv           1.00 
       71 xdffout_6.xi37.                 nor2_bhv           1.00 
       72 xdffout_5.xi1.                  inv_bhv            1.00 
       73 xdffout_5.xi40.                 tgb                1.00 
       74 xdffout_5.xi34.                 tgb                1.00 
       75 xdffout_5.xi41.                 tgb                1.00 
       76 xdffout_5.xsw1.                 tgb                1.00 
       77 xdffout_5.xi42.                 nor2_bhv           1.00 
       78 xdffout_5.xi43.                 nor2_bhv           1.00 
       79 xdffout_5.xi31.                 nor2_bhv           1.00 
       80 xdffout_5.xi37.                 nor2_bhv           1.00 
       81 xdffout_4.xi1.                  inv_bhv            1.00 
       82 xdffout_4.xi40.                 tgb                1.00 
       83 xdffout_4.xi34.                 tgb                1.00 
       84 xdffout_4.xi41.                 tgb                1.00 
       85 xdffout_4.xsw1.                 tgb                1.00 
       86 xdffout_4.xi42.                 nor2_bhv           1.00 
       87 xdffout_4.xi43.                 nor2_bhv           1.00 
       88 xdffout_4.xi31.                 nor2_bhv           1.00 
       89 xdffout_4.xi37.                 nor2_bhv           1.00 
       90 xdffout_3.xi1.                  inv_bhv            1.00 
       91 xdffout_3.xi40.                 tgb                1.00 
       92 xdffout_3.xi34.                 tgb                1.00 
       93 xdffout_3.xi41.                 tgb                1.00 
       94 xdffout_3.xsw1.                 tgb                1.00 
       95 xdffout_3.xi42.                 nor2_bhv           1.00 
       96 xdffout_3.xi43.                 nor2_bhv           1.00 
       97 xdffout_3.xi31.                 nor2_bhv           1.00 
       98 xdffout_3.xi37.                 nor2_bhv           1.00 
       99 xdffout_2.xi1.                  inv_bhv            1.00 
      100 xdffout_2.xi40.                 tgb                1.00 
      101 xdffout_2.xi34.                 tgb                1.00 
      102 xdffout_2.xi41.                 tgb                1.00 
      103 xdffout_2.xsw1.                 tgb                1.00 
      104 xdffout_2.xi42.                 nor2_bhv           1.00 
      105 xdffout_2.xi43.                 nor2_bhv           1.00 
      106 xdffout_2.xi31.                 nor2_bhv           1.00 
      107 xdffout_2.xi37.                 nor2_bhv           1.00 
      108 xdffout_1.xi1.                  inv_bhv            1.00 
      109 xdffout_1.xi40.                 tgb                1.00 
      110 xdffout_1.xi34.                 tgb                1.00 
      111 xdffout_1.xi41.                 tgb                1.00 
      112 xdffout_1.xsw1.                 tgb                1.00 
      113 xdffout_1.xi42.                 nor2_bhv           1.00 
      114 xdffout_1.xi43.                 nor2_bhv           1.00 
      115 xdffout_1.xi31.                 nor2_bhv           1.00 
      116 xdffout_1.xi37.                 nor2_bhv           1.00 
      117 xdffout_0.xi1.                  inv_bhv            1.00 
      118 xdffout_0.xi40.                 tgb                1.00 
      119 xdffout_0.xi34.                 tgb                1.00 
      120 xdffout_0.xi41.                 tgb                1.00 
      121 xdffout_0.xsw1.                 tgb                1.00 
      122 xdffout_0.xi42.                 nor2_bhv           1.00 
      123 xdffout_0.xi43.                 nor2_bhv           1.00 
      124 xdffout_0.xi31.                 nor2_bhv           1.00 
      125 xdffout_0.xi37.                 nor2_bhv           1.00 
      126 xi7.xn1.                        nmos_b             1.00 
      127 xi7.xi9.                        nmos_b             1.00 
      128 xi7.xp1.                        pmos_b             1.00 
      129 xi7.xi10.                       pmos_b             1.00 
      130 xi28.xp1.                       pmos_b             1.00 
      131 xi28.xn1.                       nmos_b             1.00 
      132 xi6.xp1.                        pmos_b             1.00 
      133 xi6.xn1.                        nmos_b             1.00 
      134 xi5.xp1.                        pmos_b             1.00 
      135 xi5.xn1.                        nmos_b             1.00 
      136 xc_array_p.xsa_dac.xswdac_0.    dac_sw             1.00 
      137 xc_array_p.xsa_dac.xswdac_1.    dac_sw             1.00 
      138 xc_array_p.xsa_dac.xswdac_2.    dac_sw             1.00 
      139 xc_array_p.xsa_dac.xswdac_3.    dac_sw             1.00 
      140 xc_array_p.xsa_dac.xswdac_4.    dac_sw             1.00 
      141 xc_array_p.xsa_dac.xswdac_5.    dac_sw             1.00 
      142 xc_array_p.xsa_dac.xswdac_6.    dac_sw             1.00 
      143 xc_array_p.xsa_dac.xswdac_7.    dac_sw             1.00 
      144 xc_array_p.xsa_dac.xi1.         inv_bhv            1.00 
      145 xc_array_p.xsa_dac.xswdac00.    tgb                1.00 
      146 xc_array_p.xsa_dac.xswvin.      tgb                1.00 
      147 xc_array_n.xsa_dac.xswdac_0.    dac_sw             1.00 
      148 xc_array_n.xsa_dac.xswdac_1.    dac_sw             1.00 
      149 xc_array_n.xsa_dac.xswdac_2.    dac_sw             1.00 
      150 xc_array_n.xsa_dac.xswdac_3.    dac_sw             1.00 
      151 xc_array_n.xsa_dac.xswdac_4.    dac_sw             1.00 
      152 xc_array_n.xsa_dac.xswdac_5.    dac_sw             1.00 
      153 xc_array_n.xsa_dac.xswdac_6.    dac_sw             1.00 
      154 xc_array_n.xsa_dac.xswdac_7.    dac_sw             1.00 
      155 xc_array_n.xsa_dac.xi1.         inv_bhv            1.00 
      156 xc_array_n.xsa_dac.xswdac00.    tgb                1.00 
      157 xc_array_n.xsa_dac.xswvin.      tgb                1.00 
      158 xsa_logic.xi36.xp1.             pmos_b             1.00 
      159 xsa_logic.xi36.xn1.             nmos_b             1.00 
      160 xsa_logic.xi19.xn1.             nmos_b             1.00 
      161 xsa_logic.xi19.xi9.             nmos_b             1.00 
      162 xsa_logic.xi19.xp1.             pmos_b             1.00 
      163 xsa_logic.xi19.xi10.            pmos_b             1.00 
      164 xsa_logic.xi23.xn1.             nmos_b             1.00 
      165 xsa_logic.xi23.xi9.             nmos_b             1.00 
      166 xsa_logic.xi23.xp1.             pmos_b             1.00 
      167 xsa_logic.xi23.xi10.            pmos_b             1.00 
      168 xsa_logic.xi22.xn1.             nmos_b             1.00 
      169 xsa_logic.xi22.xi9.             nmos_b             1.00 
      170 xsa_logic.xi22.xp1.             pmos_b             1.00 
      171 xsa_logic.xi22.xi10.            pmos_b             1.00 
      172 xsa_logic.xi26.xn1.             nmos_b             1.00 
      173 xsa_logic.xi26.xi9.             nmos_b             1.00 
      174 xsa_logic.xi26.xp1.             pmos_b             1.00 
      175 xsa_logic.xi26.xi10.            pmos_b             1.00 
      176 xsa_logic.xi27.xn1.             nmos_b             1.00 
      177 xsa_logic.xi27.xi9.             nmos_b             1.00 
      178 xsa_logic.xi27.xp1.             pmos_b             1.00 
      179 xsa_logic.xi27.xi10.            pmos_b             1.00 
      180 xsa_logic.xi29.xn1.             nmos_b             1.00 
      181 xsa_logic.xi29.xi9.             nmos_b             1.00 
      182 xsa_logic.xi29.xp1.             pmos_b             1.00 
      183 xsa_logic.xi29.xi10.            pmos_b             1.00 
      184 xsa_logic.xi32.xn1.             nmos_b             1.00 
      185 xsa_logic.xi32.xi9.             nmos_b             1.00 
      186 xsa_logic.xi32.xp1.             pmos_b             1.00 
      187 xsa_logic.xi32.xi10.            pmos_b             1.00 
      188 xsa_logic.xi33.xn1.             nmos_b             1.00 
      189 xsa_logic.xi33.xi9.             nmos_b             1.00 
      190 xsa_logic.xi33.xp1.             pmos_b             1.00 
      191 xsa_logic.xi33.xi10.            pmos_b             1.00 
      192 xsa_logic.xi24.xn1.             nmos_b             1.00 
      193 xsa_logic.xi24.xi9.             nmos_b             1.00 
      194 xsa_logic.xi24.xp1.             pmos_b             1.00 
      195 xsa_logic.xi24.xi10.            pmos_b             1.00 
      196 xsa_logic.xi20.xn1.             nmos_b             1.00 
      197 xsa_logic.xi20.xi9.             nmos_b             1.00 
      198 xsa_logic.xi20.xp1.             pmos_b             1.00 
      199 xsa_logic.xi20.xi10.            pmos_b             1.00 
      200 xsa_logic.xi21.xn1.             nmos_b             1.00 
      201 xsa_logic.xi21.xi9.             nmos_b             1.00 
      202 xsa_logic.xi21.xp1.             pmos_b             1.00 
      203 xsa_logic.xi21.xi10.            pmos_b             1.00 
      204 xsa_logic.xi25.xn1.             nmos_b             1.00 
      205 xsa_logic.xi25.xi9.             nmos_b             1.00 
      206 xsa_logic.xi25.xp1.             pmos_b             1.00 
      207 xsa_logic.xi25.xi10.            pmos_b             1.00 
      208 xsa_logic.xi28.xn1.             nmos_b             1.00 
      209 xsa_logic.xi28.xi9.             nmos_b             1.00 
      210 xsa_logic.xi28.xp1.             pmos_b             1.00 
      211 xsa_logic.xi28.xi10.            pmos_b             1.00 
      212 xsa_logic.xi30.xn1.             nmos_b             1.00 
      213 xsa_logic.xi30.xi9.             nmos_b             1.00 
      214 xsa_logic.xi30.xp1.             pmos_b             1.00 
      215 xsa_logic.xi30.xi10.            pmos_b             1.00 
      216 xsa_logic.xi31.xn1.             nmos_b             1.00 
      217 xsa_logic.xi31.xi9.             nmos_b             1.00 
      218 xsa_logic.xi31.xp1.             pmos_b             1.00 
      219 xsa_logic.xi31.xi10.            pmos_b             1.00 
      220 xsa_logic.xi34.xn1.             nmos_b             1.00 
      221 xsa_logic.xi34.xi9.             nmos_b             1.00 
      222 xsa_logic.xi34.xp1.             pmos_b             1.00 
      223 xsa_logic.xi34.xi10.            pmos_b             1.00 
      224 xsa_logic.xdata3.xi1.           inv_bhv            1.00 
      225 xsa_logic.xdata3.xi40.          tgb                1.00 
      226 xsa_logic.xdata3.xi34.          tgb                1.00 
      227 xsa_logic.xdata3.xi41.          tgb                1.00 
      228 xsa_logic.xdata3.xsw1.          tgb                1.00 
      229 xsa_logic.xdata3.xi42.          nor2_bhv           1.00 
      230 xsa_logic.xdata3.xi43.          nor2_bhv           1.00 
      231 xsa_logic.xdata3.xi31.          nor2_bhv           1.00 
      232 xsa_logic.xdata3.xi37.          nor2_bhv           1.00 
      233 xsa_logic.xdata2.xi1.           inv_bhv            1.00 
      234 xsa_logic.xdata2.xi40.          tgb                1.00 
      235 xsa_logic.xdata2.xi34.          tgb                1.00 
      236 xsa_logic.xdata2.xi41.          tgb                1.00 
      237 xsa_logic.xdata2.xsw1.          tgb                1.00 
      238 xsa_logic.xdata2.xi42.          nor2_bhv           1.00 
      239 xsa_logic.xdata2.xi43.          nor2_bhv           1.00 
      240 xsa_logic.xdata2.xi31.          nor2_bhv           1.00 
      241 xsa_logic.xdata2.xi37.          nor2_bhv           1.00 
      242 xsa_logic.xdata1.xi1.           inv_bhv            1.00 
      243 xsa_logic.xdata1.xi40.          tgb                1.00 
      244 xsa_logic.xdata1.xi34.          tgb                1.00 
      245 xsa_logic.xdata1.xi41.          tgb                1.00 
      246 xsa_logic.xdata1.xsw1.          tgb                1.00 
      247 xsa_logic.xdata1.xi42.          nor2_bhv           1.00 
      248 xsa_logic.xdata1.xi43.          nor2_bhv           1.00 
      249 xsa_logic.xdata1.xi31.          nor2_bhv           1.00 
      250 xsa_logic.xdata1.xi37.          nor2_bhv           1.00 
      251 xsa_logic.xdata0.xi1.           inv_bhv            1.00 
      252 xsa_logic.xdata0.xi40.          tgb                1.00 
      253 xsa_logic.xdata0.xi34.          tgb                1.00 
      254 xsa_logic.xdata0.xi41.          tgb                1.00 
      255 xsa_logic.xdata0.xsw1.          tgb                1.00 
      256 xsa_logic.xdata0.xi42.          nor2_bhv           1.00 
      257 xsa_logic.xdata0.xi43.          nor2_bhv           1.00 
      258 xsa_logic.xdata0.xi31.          nor2_bhv           1.00 
      259 xsa_logic.xdata0.xi37.          nor2_bhv           1.00 
      260 xsa_logic.xdata5.xi1.           inv_bhv            1.00 
      261 xsa_logic.xdata5.xi40.          tgb                1.00 
      262 xsa_logic.xdata5.xi34.          tgb                1.00 
      263 xsa_logic.xdata5.xi41.          tgb                1.00 
      264 xsa_logic.xdata5.xsw1.          tgb                1.00 
      265 xsa_logic.xdata5.xi42.          nor2_bhv           1.00 
      266 xsa_logic.xdata5.xi43.          nor2_bhv           1.00 
      267 xsa_logic.xdata5.xi31.          nor2_bhv           1.00 
      268 xsa_logic.xdata5.xi37.          nor2_bhv           1.00 
      269 xsa_logic.xrsh0.xi1.            inv_bhv            1.00 
      270 xsa_logic.xrsh0.xi40.           tgb                1.00 
      271 xsa_logic.xrsh0.xi34.           tgb                1.00 
      272 xsa_logic.xrsh0.xi41.           tgb                1.00 
      273 xsa_logic.xrsh0.xsw1.           tgb                1.00 
      274 xsa_logic.xrsh0.xi42.           nor2_bhv           1.00 
      275 xsa_logic.xrsh0.xi43.           nor2_bhv           1.00 
      276 xsa_logic.xrsh0.xi31.           nor2_bhv           1.00 
      277 xsa_logic.xrsh0.xi37.           nor2_bhv           1.00 
      278 xsa_logic.xrsh3.xi1.            inv_bhv            1.00 
      279 xsa_logic.xrsh3.xi40.           tgb                1.00 
      280 xsa_logic.xrsh3.xi34.           tgb                1.00 
      281 xsa_logic.xrsh3.xi41.           tgb                1.00 
      282 xsa_logic.xrsh3.xsw1.           tgb                1.00 
      283 xsa_logic.xrsh3.xi42.           nor2_bhv           1.00 
      284 xsa_logic.xrsh3.xi43.           nor2_bhv           1.00 
      285 xsa_logic.xrsh3.xi31.           nor2_bhv           1.00 
      286 xsa_logic.xrsh3.xi37.           nor2_bhv           1.00 
      287 xsa_logic.xrsh2.xi1.            inv_bhv            1.00 
      288 xsa_logic.xrsh2.xi40.           tgb                1.00 
      289 xsa_logic.xrsh2.xi34.           tgb                1.00 
      290 xsa_logic.xrsh2.xi41.           tgb                1.00 
      291 xsa_logic.xrsh2.xsw1.           tgb                1.00 
      292 xsa_logic.xrsh2.xi42.           nor2_bhv           1.00 
      293 xsa_logic.xrsh2.xi43.           nor2_bhv           1.00 
      294 xsa_logic.xrsh2.xi31.           nor2_bhv           1.00 
      295 xsa_logic.xrsh2.xi37.           nor2_bhv           1.00 
      296 xsa_logic.xrsh1.xi1.            inv_bhv            1.00 
      297 xsa_logic.xrsh1.xi40.           tgb                1.00 
      298 xsa_logic.xrsh1.xi34.           tgb                1.00 
      299 xsa_logic.xrsh1.xi41.           tgb                1.00 
      300 xsa_logic.xrsh1.xsw1.           tgb                1.00 
      301 xsa_logic.xrsh1.xi42.           nor2_bhv           1.00 
      302 xsa_logic.xrsh1.xi43.           nor2_bhv           1.00 
      303 xsa_logic.xrsh1.xi31.           nor2_bhv           1.00 
      304 xsa_logic.xrsh1.xi37.           nor2_bhv           1.00 
      305 xsa_logic.xrsh4.xi1.            inv_bhv            1.00 
      306 xsa_logic.xrsh4.xi40.           tgb                1.00 
      307 xsa_logic.xrsh4.xi34.           tgb                1.00 
      308 xsa_logic.xrsh4.xi41.           tgb                1.00 
      309 xsa_logic.xrsh4.xsw1.           tgb                1.00 
      310 xsa_logic.xrsh4.xi42.           nor2_bhv           1.00 
      311 xsa_logic.xrsh4.xi43.           nor2_bhv           1.00 
      312 xsa_logic.xrsh4.xi31.           nor2_bhv           1.00 
      313 xsa_logic.xrsh4.xi37.           nor2_bhv           1.00 
      314 xsa_logic.xdata7.xi1.           inv_bhv            1.00 
      315 xsa_logic.xdata7.xi40.          tgb                1.00 
      316 xsa_logic.xdata7.xi34.          tgb                1.00 
      317 xsa_logic.xdata7.xi41.          tgb                1.00 
      318 xsa_logic.xdata7.xsw1.          tgb                1.00 
      319 xsa_logic.xdata7.xi42.          nor2_bhv           1.00 
      320 xsa_logic.xdata7.xi43.          nor2_bhv           1.00 
      321 xsa_logic.xdata7.xi31.          nor2_bhv           1.00 
      322 xsa_logic.xdata7.xi37.          nor2_bhv           1.00 
      323 xsa_logic.xrsh5.xi1.            inv_bhv            1.00 
      324 xsa_logic.xrsh5.xi40.           tgb                1.00 
      325 xsa_logic.xrsh5.xi34.           tgb                1.00 
      326 xsa_logic.xrsh5.xi41.           tgb                1.00 
      327 xsa_logic.xrsh5.xsw1.           tgb                1.00 
      328 xsa_logic.xrsh5.xi42.           nor2_bhv           1.00 
      329 xsa_logic.xrsh5.xi43.           nor2_bhv           1.00 
      330 xsa_logic.xrsh5.xi31.           nor2_bhv           1.00 
      331 xsa_logic.xrsh5.xi37.           nor2_bhv           1.00 
      332 xsa_logic.xdata6.xi1.           inv_bhv            1.00 
      333 xsa_logic.xdata6.xi40.          tgb                1.00 
      334 xsa_logic.xdata6.xi34.          tgb                1.00 
      335 xsa_logic.xdata6.xi41.          tgb                1.00 
      336 xsa_logic.xdata6.xsw1.          tgb                1.00 
      337 xsa_logic.xdata6.xi42.          nor2_bhv           1.00 
      338 xsa_logic.xdata6.xi43.          nor2_bhv           1.00 
      339 xsa_logic.xdata6.xi31.          nor2_bhv           1.00 
      340 xsa_logic.xdata6.xi37.          nor2_bhv           1.00 
      341 xsa_logic.xdata4.xi1.           inv_bhv            1.00 
      342 xsa_logic.xdata4.xi40.          tgb                1.00 
      343 xsa_logic.xdata4.xi34.          tgb                1.00 
      344 xsa_logic.xdata4.xi41.          tgb                1.00 
      345 xsa_logic.xdata4.xsw1.          tgb                1.00 
      346 xsa_logic.xdata4.xi42.          nor2_bhv           1.00 
      347 xsa_logic.xdata4.xi43.          nor2_bhv           1.00 
      348 xsa_logic.xdata4.xi31.          nor2_bhv           1.00 
      349 xsa_logic.xdata4.xi37.          nor2_bhv           1.00 
      350 xsa_logic.xrsh6.xi1.            inv_bhv            1.00 
      351 xsa_logic.xrsh6.xi40.           tgb                1.00 
      352 xsa_logic.xrsh6.xi34.           tgb                1.00 
      353 xsa_logic.xrsh6.xi41.           tgb                1.00 
      354 xsa_logic.xrsh6.xsw1.           tgb                1.00 
      355 xsa_logic.xrsh6.xi42.           nor2_bhv           1.00 
      356 xsa_logic.xrsh6.xi43.           nor2_bhv           1.00 
      357 xsa_logic.xrsh6.xi31.           nor2_bhv           1.00 
      358 xsa_logic.xrsh6.xi37.           nor2_bhv           1.00 
      359 xsa_logic.xrsh7.xi1.            inv_bhv            1.00 
      360 xsa_logic.xrsh7.xi40.           tgb                1.00 
      361 xsa_logic.xrsh7.xi34.           tgb                1.00 
      362 xsa_logic.xrsh7.xi41.           tgb                1.00 
      363 xsa_logic.xrsh7.xsw1.           tgb                1.00 
      364 xsa_logic.xrsh7.xi42.           nor2_bhv           1.00 
      365 xsa_logic.xrsh7.xi43.           nor2_bhv           1.00 
      366 xsa_logic.xrsh7.xi31.           nor2_bhv           1.00 
      367 xsa_logic.xrsh7.xi37.           nor2_bhv           1.00 
      368 xdffout_7.xi1.xp1.              pmos_b             1.00 
      369 xdffout_7.xi1.xn1.              nmos_b             1.00 
      370 xdffout_7.xi42.xn1.             nmos_b             1.00 
      371 xdffout_7.xi42.xi9.             nmos_b             1.00 
      372 xdffout_7.xi42.xp1.             pmos_b             1.00 
      373 xdffout_7.xi42.xi10.            pmos_b             1.00 
      374 xdffout_7.xi43.xn1.             nmos_b             1.00 
      375 xdffout_7.xi43.xi9.             nmos_b             1.00 
      376 xdffout_7.xi43.xp1.             pmos_b             1.00 
      377 xdffout_7.xi43.xi10.            pmos_b             1.00 
      378 xdffout_7.xi31.xn1.             nmos_b             1.00 
      379 xdffout_7.xi31.xi9.             nmos_b             1.00 
      380 xdffout_7.xi31.xp1.             pmos_b             1.00 
      381 xdffout_7.xi31.xi10.            pmos_b             1.00 
      382 xdffout_7.xi37.xn1.             nmos_b             1.00 
      383 xdffout_7.xi37.xi9.             nmos_b             1.00 
      384 xdffout_7.xi37.xp1.             pmos_b             1.00 
      385 xdffout_7.xi37.xi10.            pmos_b             1.00 
      386 xdffout_6.xi1.xp1.              pmos_b             1.00 
      387 xdffout_6.xi1.xn1.              nmos_b             1.00 
      388 xdffout_6.xi42.xn1.             nmos_b             1.00 
      389 xdffout_6.xi42.xi9.             nmos_b             1.00 
      390 xdffout_6.xi42.xp1.             pmos_b             1.00 
      391 xdffout_6.xi42.xi10.            pmos_b             1.00 
      392 xdffout_6.xi43.xn1.             nmos_b             1.00 
      393 xdffout_6.xi43.xi9.             nmos_b             1.00 
      394 xdffout_6.xi43.xp1.             pmos_b             1.00 
      395 xdffout_6.xi43.xi10.            pmos_b             1.00 
      396 xdffout_6.xi31.xn1.             nmos_b             1.00 
      397 xdffout_6.xi31.xi9.             nmos_b             1.00 
      398 xdffout_6.xi31.xp1.             pmos_b             1.00 
      399 xdffout_6.xi31.xi10.            pmos_b             1.00 
      400 xdffout_6.xi37.xn1.             nmos_b             1.00 
      401 xdffout_6.xi37.xi9.             nmos_b             1.00 
      402 xdffout_6.xi37.xp1.             pmos_b             1.00 
      403 xdffout_6.xi37.xi10.            pmos_b             1.00 
      404 xdffout_5.xi1.xp1.              pmos_b             1.00 
      405 xdffout_5.xi1.xn1.              nmos_b             1.00 
      406 xdffout_5.xi42.xn1.             nmos_b             1.00 
      407 xdffout_5.xi42.xi9.             nmos_b             1.00 
      408 xdffout_5.xi42.xp1.             pmos_b             1.00 
      409 xdffout_5.xi42.xi10.            pmos_b             1.00 
      410 xdffout_5.xi43.xn1.             nmos_b             1.00 
      411 xdffout_5.xi43.xi9.             nmos_b             1.00 
      412 xdffout_5.xi43.xp1.             pmos_b             1.00 
      413 xdffout_5.xi43.xi10.            pmos_b             1.00 
      414 xdffout_5.xi31.xn1.             nmos_b             1.00 
      415 xdffout_5.xi31.xi9.             nmos_b             1.00 
      416 xdffout_5.xi31.xp1.             pmos_b             1.00 
      417 xdffout_5.xi31.xi10.            pmos_b             1.00 
      418 xdffout_5.xi37.xn1.             nmos_b             1.00 
      419 xdffout_5.xi37.xi9.             nmos_b             1.00 
      420 xdffout_5.xi37.xp1.             pmos_b             1.00 
      421 xdffout_5.xi37.xi10.            pmos_b             1.00 
      422 xdffout_4.xi1.xp1.              pmos_b             1.00 
      423 xdffout_4.xi1.xn1.              nmos_b             1.00 
      424 xdffout_4.xi42.xn1.             nmos_b             1.00 
      425 xdffout_4.xi42.xi9.             nmos_b             1.00 
      426 xdffout_4.xi42.xp1.             pmos_b             1.00 
      427 xdffout_4.xi42.xi10.            pmos_b             1.00 
      428 xdffout_4.xi43.xn1.             nmos_b             1.00 
      429 xdffout_4.xi43.xi9.             nmos_b             1.00 
      430 xdffout_4.xi43.xp1.             pmos_b             1.00 
      431 xdffout_4.xi43.xi10.            pmos_b             1.00 
      432 xdffout_4.xi31.xn1.             nmos_b             1.00 
      433 xdffout_4.xi31.xi9.             nmos_b             1.00 
      434 xdffout_4.xi31.xp1.             pmos_b             1.00 
      435 xdffout_4.xi31.xi10.            pmos_b             1.00 
      436 xdffout_4.xi37.xn1.             nmos_b             1.00 
      437 xdffout_4.xi37.xi9.             nmos_b             1.00 
      438 xdffout_4.xi37.xp1.             pmos_b             1.00 
      439 xdffout_4.xi37.xi10.            pmos_b             1.00 
      440 xdffout_3.xi1.xp1.              pmos_b             1.00 
      441 xdffout_3.xi1.xn1.              nmos_b             1.00 
      442 xdffout_3.xi42.xn1.             nmos_b             1.00 
      443 xdffout_3.xi42.xi9.             nmos_b             1.00 
      444 xdffout_3.xi42.xp1.             pmos_b             1.00 
      445 xdffout_3.xi42.xi10.            pmos_b             1.00 
      446 xdffout_3.xi43.xn1.             nmos_b             1.00 
      447 xdffout_3.xi43.xi9.             nmos_b             1.00 
      448 xdffout_3.xi43.xp1.             pmos_b             1.00 
      449 xdffout_3.xi43.xi10.            pmos_b             1.00 
      450 xdffout_3.xi31.xn1.             nmos_b             1.00 
      451 xdffout_3.xi31.xi9.             nmos_b             1.00 
      452 xdffout_3.xi31.xp1.             pmos_b             1.00 
      453 xdffout_3.xi31.xi10.            pmos_b             1.00 
      454 xdffout_3.xi37.xn1.             nmos_b             1.00 
      455 xdffout_3.xi37.xi9.             nmos_b             1.00 
      456 xdffout_3.xi37.xp1.             pmos_b             1.00 
      457 xdffout_3.xi37.xi10.            pmos_b             1.00 
      458 xdffout_2.xi1.xp1.              pmos_b             1.00 
      459 xdffout_2.xi1.xn1.              nmos_b             1.00 
      460 xdffout_2.xi42.xn1.             nmos_b             1.00 
      461 xdffout_2.xi42.xi9.             nmos_b             1.00 
      462 xdffout_2.xi42.xp1.             pmos_b             1.00 
      463 xdffout_2.xi42.xi10.            pmos_b             1.00 
      464 xdffout_2.xi43.xn1.             nmos_b             1.00 
      465 xdffout_2.xi43.xi9.             nmos_b             1.00 
      466 xdffout_2.xi43.xp1.             pmos_b             1.00 
      467 xdffout_2.xi43.xi10.            pmos_b             1.00 
      468 xdffout_2.xi31.xn1.             nmos_b             1.00 
      469 xdffout_2.xi31.xi9.             nmos_b             1.00 
      470 xdffout_2.xi31.xp1.             pmos_b             1.00 
      471 xdffout_2.xi31.xi10.            pmos_b             1.00 
      472 xdffout_2.xi37.xn1.             nmos_b             1.00 
      473 xdffout_2.xi37.xi9.             nmos_b             1.00 
      474 xdffout_2.xi37.xp1.             pmos_b             1.00 
      475 xdffout_2.xi37.xi10.            pmos_b             1.00 
      476 xdffout_1.xi1.xp1.              pmos_b             1.00 
      477 xdffout_1.xi1.xn1.              nmos_b             1.00 
      478 xdffout_1.xi42.xn1.             nmos_b             1.00 
      479 xdffout_1.xi42.xi9.             nmos_b             1.00 
      480 xdffout_1.xi42.xp1.             pmos_b             1.00 
      481 xdffout_1.xi42.xi10.            pmos_b             1.00 
      482 xdffout_1.xi43.xn1.             nmos_b             1.00 
      483 xdffout_1.xi43.xi9.             nmos_b             1.00 
      484 xdffout_1.xi43.xp1.             pmos_b             1.00 
      485 xdffout_1.xi43.xi10.            pmos_b             1.00 
      486 xdffout_1.xi31.xn1.             nmos_b             1.00 
      487 xdffout_1.xi31.xi9.             nmos_b             1.00 
      488 xdffout_1.xi31.xp1.             pmos_b             1.00 
      489 xdffout_1.xi31.xi10.            pmos_b             1.00 
      490 xdffout_1.xi37.xn1.             nmos_b             1.00 
      491 xdffout_1.xi37.xi9.             nmos_b             1.00 
      492 xdffout_1.xi37.xp1.             pmos_b             1.00 
      493 xdffout_1.xi37.xi10.            pmos_b             1.00 
      494 xdffout_0.xi1.xp1.              pmos_b             1.00 
      495 xdffout_0.xi1.xn1.              nmos_b             1.00 
      496 xdffout_0.xi42.xn1.             nmos_b             1.00 
      497 xdffout_0.xi42.xi9.             nmos_b             1.00 
      498 xdffout_0.xi42.xp1.             pmos_b             1.00 
      499 xdffout_0.xi42.xi10.            pmos_b             1.00 
      500 xdffout_0.xi43.xn1.             nmos_b             1.00 
      501 xdffout_0.xi43.xi9.             nmos_b             1.00 
      502 xdffout_0.xi43.xp1.             pmos_b             1.00 
      503 xdffout_0.xi43.xi10.            pmos_b             1.00 
      504 xdffout_0.xi31.xn1.             nmos_b             1.00 
      505 xdffout_0.xi31.xi9.             nmos_b             1.00 
      506 xdffout_0.xi31.xp1.             pmos_b             1.00 
      507 xdffout_0.xi31.xi10.            pmos_b             1.00 
      508 xdffout_0.xi37.xn1.             nmos_b             1.00 
      509 xdffout_0.xi37.xi9.             nmos_b             1.00 
      510 xdffout_0.xi37.xp1.             pmos_b             1.00 
      511 xdffout_0.xi37.xi10.            pmos_b             1.00 
      512 xc_array_p.xsa_dac.xswdac_0.xi7.
                                            inv_bhv            1.00 
      513 xc_array_p.xsa_dac.xswdac_0.xi3.
                                            inv_bhv            1.00 
      514 xc_array_p.xsa_dac.xswdac_0.xi20.
                                            inv_bhv            1.00 
      515 xc_array_p.xsa_dac.xswdac_0.xi1.
                                            inv_bhv            1.00 
      516 xc_array_p.xsa_dac.xswdac_0.xi2.
                                            nand2_bhv          1.00 
      517 xc_array_p.xsa_dac.xswdac_0.xi19.
                                            nand2_bhv          1.00 
      518 xc_array_p.xsa_dac.xswdac_0.xswp.
                                            tgb                1.00 
      519 xc_array_p.xsa_dac.xswdac_0.xswn.
                                            tgb                1.00 
      520 xc_array_p.xsa_dac.xswdac_0.xswin.
                                            tgb                1.00 
      521 xc_array_p.xsa_dac.xswdac_1.xi7.
                                            inv_bhv            1.00 
      522 xc_array_p.xsa_dac.xswdac_1.xi3.
                                            inv_bhv            1.00 
      523 xc_array_p.xsa_dac.xswdac_1.xi20.
                                            inv_bhv            1.00 
      524 xc_array_p.xsa_dac.xswdac_1.xi1.
                                            inv_bhv            1.00 
      525 xc_array_p.xsa_dac.xswdac_1.xi2.
                                            nand2_bhv          1.00 
      526 xc_array_p.xsa_dac.xswdac_1.xi19.
                                            nand2_bhv          1.00 
      527 xc_array_p.xsa_dac.xswdac_1.xswp.
                                            tgb                1.00 
      528 xc_array_p.xsa_dac.xswdac_1.xswn.
                                            tgb                1.00 
      529 xc_array_p.xsa_dac.xswdac_1.xswin.
                                            tgb                1.00 
      530 xc_array_p.xsa_dac.xswdac_2.xi7.
                                            inv_bhv            1.00 
      531 xc_array_p.xsa_dac.xswdac_2.xi3.
                                            inv_bhv            1.00 
      532 xc_array_p.xsa_dac.xswdac_2.xi20.
                                            inv_bhv            1.00 
      533 xc_array_p.xsa_dac.xswdac_2.xi1.
                                            inv_bhv            1.00 
      534 xc_array_p.xsa_dac.xswdac_2.xi2.
                                            nand2_bhv          1.00 
      535 xc_array_p.xsa_dac.xswdac_2.xi19.
                                            nand2_bhv          1.00 
      536 xc_array_p.xsa_dac.xswdac_2.xswp.
                                            tgb                1.00 
      537 xc_array_p.xsa_dac.xswdac_2.xswn.
                                            tgb                1.00 
      538 xc_array_p.xsa_dac.xswdac_2.xswin.
                                            tgb                1.00 
      539 xc_array_p.xsa_dac.xswdac_3.xi7.
                                            inv_bhv            1.00 
      540 xc_array_p.xsa_dac.xswdac_3.xi3.
                                            inv_bhv            1.00 
      541 xc_array_p.xsa_dac.xswdac_3.xi20.
                                            inv_bhv            1.00 
      542 xc_array_p.xsa_dac.xswdac_3.xi1.
                                            inv_bhv            1.00 
      543 xc_array_p.xsa_dac.xswdac_3.xi2.
                                            nand2_bhv          1.00 
      544 xc_array_p.xsa_dac.xswdac_3.xi19.
                                            nand2_bhv          1.00 
      545 xc_array_p.xsa_dac.xswdac_3.xswp.
                                            tgb                1.00 
      546 xc_array_p.xsa_dac.xswdac_3.xswn.
                                            tgb                1.00 
      547 xc_array_p.xsa_dac.xswdac_3.xswin.
                                            tgb                1.00 
      548 xc_array_p.xsa_dac.xswdac_4.xi7.
                                            inv_bhv            1.00 
      549 xc_array_p.xsa_dac.xswdac_4.xi3.
                                            inv_bhv            1.00 
      550 xc_array_p.xsa_dac.xswdac_4.xi20.
                                            inv_bhv            1.00 
      551 xc_array_p.xsa_dac.xswdac_4.xi1.
                                            inv_bhv            1.00 
      552 xc_array_p.xsa_dac.xswdac_4.xi2.
                                            nand2_bhv          1.00 
      553 xc_array_p.xsa_dac.xswdac_4.xi19.
                                            nand2_bhv          1.00 
      554 xc_array_p.xsa_dac.xswdac_4.xswp.
                                            tgb                1.00 
      555 xc_array_p.xsa_dac.xswdac_4.xswn.
                                            tgb                1.00 
      556 xc_array_p.xsa_dac.xswdac_4.xswin.
                                            tgb                1.00 
      557 xc_array_p.xsa_dac.xswdac_5.xi7.
                                            inv_bhv            1.00 
      558 xc_array_p.xsa_dac.xswdac_5.xi3.
                                            inv_bhv            1.00 
      559 xc_array_p.xsa_dac.xswdac_5.xi20.
                                            inv_bhv            1.00 
      560 xc_array_p.xsa_dac.xswdac_5.xi1.
                                            inv_bhv            1.00 
      561 xc_array_p.xsa_dac.xswdac_5.xi2.
                                            nand2_bhv          1.00 
      562 xc_array_p.xsa_dac.xswdac_5.xi19.
                                            nand2_bhv          1.00 
      563 xc_array_p.xsa_dac.xswdac_5.xswp.
                                            tgb                1.00 
      564 xc_array_p.xsa_dac.xswdac_5.xswn.
                                            tgb                1.00 
      565 xc_array_p.xsa_dac.xswdac_5.xswin.
                                            tgb                1.00 
      566 xc_array_p.xsa_dac.xswdac_6.xi7.
                                            inv_bhv            1.00 
      567 xc_array_p.xsa_dac.xswdac_6.xi3.
                                            inv_bhv            1.00 
      568 xc_array_p.xsa_dac.xswdac_6.xi20.
                                            inv_bhv            1.00 
      569 xc_array_p.xsa_dac.xswdac_6.xi1.
                                            inv_bhv            1.00 
      570 xc_array_p.xsa_dac.xswdac_6.xi2.
                                            nand2_bhv          1.00 
      571 xc_array_p.xsa_dac.xswdac_6.xi19.
                                            nand2_bhv          1.00 
      572 xc_array_p.xsa_dac.xswdac_6.xswp.
                                            tgb                1.00 
      573 xc_array_p.xsa_dac.xswdac_6.xswn.
                                            tgb                1.00 
      574 xc_array_p.xsa_dac.xswdac_6.xswin.
                                            tgb                1.00 
      575 xc_array_p.xsa_dac.xswdac_7.xi7.
                                            inv_bhv            1.00 
      576 xc_array_p.xsa_dac.xswdac_7.xi3.
                                            inv_bhv            1.00 
      577 xc_array_p.xsa_dac.xswdac_7.xi20.
                                            inv_bhv            1.00 
      578 xc_array_p.xsa_dac.xswdac_7.xi1.
                                            inv_bhv            1.00 
      579 xc_array_p.xsa_dac.xswdac_7.xi2.
                                            nand2_bhv          1.00 
      580 xc_array_p.xsa_dac.xswdac_7.xi19.
                                            nand2_bhv          1.00 
      581 xc_array_p.xsa_dac.xswdac_7.xswp.
                                            tgb                1.00 
      582 xc_array_p.xsa_dac.xswdac_7.xswn.
                                            tgb                1.00 
      583 xc_array_p.xsa_dac.xswdac_7.xswin.
                                            tgb                1.00 
      584 xc_array_p.xsa_dac.xi1.xp1.     pmos_b             1.00 
      585 xc_array_p.xsa_dac.xi1.xn1.     nmos_b             1.00 
      586 xc_array_n.xsa_dac.xswdac_0.xi7.
                                            inv_bhv            1.00 
      587 xc_array_n.xsa_dac.xswdac_0.xi3.
                                            inv_bhv            1.00 
      588 xc_array_n.xsa_dac.xswdac_0.xi20.
                                            inv_bhv            1.00 
      589 xc_array_n.xsa_dac.xswdac_0.xi1.
                                            inv_bhv            1.00 
      590 xc_array_n.xsa_dac.xswdac_0.xi2.
                                            nand2_bhv          1.00 
      591 xc_array_n.xsa_dac.xswdac_0.xi19.
                                            nand2_bhv          1.00 
      592 xc_array_n.xsa_dac.xswdac_0.xswp.
                                            tgb                1.00 
      593 xc_array_n.xsa_dac.xswdac_0.xswn.
                                            tgb                1.00 
      594 xc_array_n.xsa_dac.xswdac_0.xswin.
                                            tgb                1.00 
      595 xc_array_n.xsa_dac.xswdac_1.xi7.
                                            inv_bhv            1.00 
      596 xc_array_n.xsa_dac.xswdac_1.xi3.
                                            inv_bhv            1.00 
      597 xc_array_n.xsa_dac.xswdac_1.xi20.
                                            inv_bhv            1.00 
      598 xc_array_n.xsa_dac.xswdac_1.xi1.
                                            inv_bhv            1.00 
      599 xc_array_n.xsa_dac.xswdac_1.xi2.
                                            nand2_bhv          1.00 
      600 xc_array_n.xsa_dac.xswdac_1.xi19.
                                            nand2_bhv          1.00 
      601 xc_array_n.xsa_dac.xswdac_1.xswp.
                                            tgb                1.00 
      602 xc_array_n.xsa_dac.xswdac_1.xswn.
                                            tgb                1.00 
      603 xc_array_n.xsa_dac.xswdac_1.xswin.
                                            tgb                1.00 
      604 xc_array_n.xsa_dac.xswdac_2.xi7.
                                            inv_bhv            1.00 
      605 xc_array_n.xsa_dac.xswdac_2.xi3.
                                            inv_bhv            1.00 
      606 xc_array_n.xsa_dac.xswdac_2.xi20.
                                            inv_bhv            1.00 
      607 xc_array_n.xsa_dac.xswdac_2.xi1.
                                            inv_bhv            1.00 
      608 xc_array_n.xsa_dac.xswdac_2.xi2.
                                            nand2_bhv          1.00 
      609 xc_array_n.xsa_dac.xswdac_2.xi19.
                                            nand2_bhv          1.00 
      610 xc_array_n.xsa_dac.xswdac_2.xswp.
                                            tgb                1.00 
      611 xc_array_n.xsa_dac.xswdac_2.xswn.
                                            tgb                1.00 
      612 xc_array_n.xsa_dac.xswdac_2.xswin.
                                            tgb                1.00 
      613 xc_array_n.xsa_dac.xswdac_3.xi7.
                                            inv_bhv            1.00 
      614 xc_array_n.xsa_dac.xswdac_3.xi3.
                                            inv_bhv            1.00 
      615 xc_array_n.xsa_dac.xswdac_3.xi20.
                                            inv_bhv            1.00 
      616 xc_array_n.xsa_dac.xswdac_3.xi1.
                                            inv_bhv            1.00 
      617 xc_array_n.xsa_dac.xswdac_3.xi2.
                                            nand2_bhv          1.00 
      618 xc_array_n.xsa_dac.xswdac_3.xi19.
                                            nand2_bhv          1.00 
      619 xc_array_n.xsa_dac.xswdac_3.xswp.
                                            tgb                1.00 
      620 xc_array_n.xsa_dac.xswdac_3.xswn.
                                            tgb                1.00 
      621 xc_array_n.xsa_dac.xswdac_3.xswin.
                                            tgb                1.00 
      622 xc_array_n.xsa_dac.xswdac_4.xi7.
                                            inv_bhv            1.00 
      623 xc_array_n.xsa_dac.xswdac_4.xi3.
                                            inv_bhv            1.00 
      624 xc_array_n.xsa_dac.xswdac_4.xi20.
                                            inv_bhv            1.00 
      625 xc_array_n.xsa_dac.xswdac_4.xi1.
                                            inv_bhv            1.00 
      626 xc_array_n.xsa_dac.xswdac_4.xi2.
                                            nand2_bhv          1.00 
      627 xc_array_n.xsa_dac.xswdac_4.xi19.
                                            nand2_bhv          1.00 
      628 xc_array_n.xsa_dac.xswdac_4.xswp.
                                            tgb                1.00 
      629 xc_array_n.xsa_dac.xswdac_4.xswn.
                                            tgb                1.00 
      630 xc_array_n.xsa_dac.xswdac_4.xswin.
                                            tgb                1.00 
      631 xc_array_n.xsa_dac.xswdac_5.xi7.
                                            inv_bhv            1.00 
      632 xc_array_n.xsa_dac.xswdac_5.xi3.
                                            inv_bhv            1.00 
      633 xc_array_n.xsa_dac.xswdac_5.xi20.
                                            inv_bhv            1.00 
      634 xc_array_n.xsa_dac.xswdac_5.xi1.
                                            inv_bhv            1.00 
      635 xc_array_n.xsa_dac.xswdac_5.xi2.
                                            nand2_bhv          1.00 
      636 xc_array_n.xsa_dac.xswdac_5.xi19.
                                            nand2_bhv          1.00 
      637 xc_array_n.xsa_dac.xswdac_5.xswp.
                                            tgb                1.00 
      638 xc_array_n.xsa_dac.xswdac_5.xswn.
                                            tgb                1.00 
      639 xc_array_n.xsa_dac.xswdac_5.xswin.
                                            tgb                1.00 
      640 xc_array_n.xsa_dac.xswdac_6.xi7.
                                            inv_bhv            1.00 
      641 xc_array_n.xsa_dac.xswdac_6.xi3.
                                            inv_bhv            1.00 
      642 xc_array_n.xsa_dac.xswdac_6.xi20.
                                            inv_bhv            1.00 
      643 xc_array_n.xsa_dac.xswdac_6.xi1.
                                            inv_bhv            1.00 
      644 xc_array_n.xsa_dac.xswdac_6.xi2.
                                            nand2_bhv          1.00 
      645 xc_array_n.xsa_dac.xswdac_6.xi19.
                                            nand2_bhv          1.00 
      646 xc_array_n.xsa_dac.xswdac_6.xswp.
                                            tgb                1.00 
      647 xc_array_n.xsa_dac.xswdac_6.xswn.
                                            tgb                1.00 
      648 xc_array_n.xsa_dac.xswdac_6.xswin.
                                            tgb                1.00 
      649 xc_array_n.xsa_dac.xswdac_7.xi7.
                                            inv_bhv            1.00 
      650 xc_array_n.xsa_dac.xswdac_7.xi3.
                                            inv_bhv            1.00 
      651 xc_array_n.xsa_dac.xswdac_7.xi20.
                                            inv_bhv            1.00 
      652 xc_array_n.xsa_dac.xswdac_7.xi1.
                                            inv_bhv            1.00 
      653 xc_array_n.xsa_dac.xswdac_7.xi2.
                                            nand2_bhv          1.00 
      654 xc_array_n.xsa_dac.xswdac_7.xi19.
                                            nand2_bhv          1.00 
      655 xc_array_n.xsa_dac.xswdac_7.xswp.
                                            tgb                1.00 
      656 xc_array_n.xsa_dac.xswdac_7.xswn.
                                            tgb                1.00 
      657 xc_array_n.xsa_dac.xswdac_7.xswin.
                                            tgb                1.00 
      658 xc_array_n.xsa_dac.xi1.xp1.     pmos_b             1.00 
      659 xc_array_n.xsa_dac.xi1.xn1.     nmos_b             1.00 
      660 xsa_logic.xdata3.xi1.xp1.       pmos_b             1.00 
      661 xsa_logic.xdata3.xi1.xn1.       nmos_b             1.00 
      662 xsa_logic.xdata3.xi42.xn1.      nmos_b             1.00 
      663 xsa_logic.xdata3.xi42.xi9.      nmos_b             1.00 
      664 xsa_logic.xdata3.xi42.xp1.      pmos_b             1.00 
      665 xsa_logic.xdata3.xi42.xi10.     pmos_b             1.00 
      666 xsa_logic.xdata3.xi43.xn1.      nmos_b             1.00 
      667 xsa_logic.xdata3.xi43.xi9.      nmos_b             1.00 
      668 xsa_logic.xdata3.xi43.xp1.      pmos_b             1.00 
      669 xsa_logic.xdata3.xi43.xi10.     pmos_b             1.00 
      670 xsa_logic.xdata3.xi31.xn1.      nmos_b             1.00 
      671 xsa_logic.xdata3.xi31.xi9.      nmos_b             1.00 
      672 xsa_logic.xdata3.xi31.xp1.      pmos_b             1.00 
      673 xsa_logic.xdata3.xi31.xi10.     pmos_b             1.00 
      674 xsa_logic.xdata3.xi37.xn1.      nmos_b             1.00 
      675 xsa_logic.xdata3.xi37.xi9.      nmos_b             1.00 
      676 xsa_logic.xdata3.xi37.xp1.      pmos_b             1.00 
      677 xsa_logic.xdata3.xi37.xi10.     pmos_b             1.00 
      678 xsa_logic.xdata2.xi1.xp1.       pmos_b             1.00 
      679 xsa_logic.xdata2.xi1.xn1.       nmos_b             1.00 
      680 xsa_logic.xdata2.xi42.xn1.      nmos_b             1.00 
      681 xsa_logic.xdata2.xi42.xi9.      nmos_b             1.00 
      682 xsa_logic.xdata2.xi42.xp1.      pmos_b             1.00 
      683 xsa_logic.xdata2.xi42.xi10.     pmos_b             1.00 
      684 xsa_logic.xdata2.xi43.xn1.      nmos_b             1.00 
      685 xsa_logic.xdata2.xi43.xi9.      nmos_b             1.00 
      686 xsa_logic.xdata2.xi43.xp1.      pmos_b             1.00 
      687 xsa_logic.xdata2.xi43.xi10.     pmos_b             1.00 
      688 xsa_logic.xdata2.xi31.xn1.      nmos_b             1.00 
      689 xsa_logic.xdata2.xi31.xi9.      nmos_b             1.00 
      690 xsa_logic.xdata2.xi31.xp1.      pmos_b             1.00 
      691 xsa_logic.xdata2.xi31.xi10.     pmos_b             1.00 
      692 xsa_logic.xdata2.xi37.xn1.      nmos_b             1.00 
      693 xsa_logic.xdata2.xi37.xi9.      nmos_b             1.00 
      694 xsa_logic.xdata2.xi37.xp1.      pmos_b             1.00 
      695 xsa_logic.xdata2.xi37.xi10.     pmos_b             1.00 
      696 xsa_logic.xdata1.xi1.xp1.       pmos_b             1.00 
      697 xsa_logic.xdata1.xi1.xn1.       nmos_b             1.00 
      698 xsa_logic.xdata1.xi42.xn1.      nmos_b             1.00 
      699 xsa_logic.xdata1.xi42.xi9.      nmos_b             1.00 
      700 xsa_logic.xdata1.xi42.xp1.      pmos_b             1.00 
      701 xsa_logic.xdata1.xi42.xi10.     pmos_b             1.00 
      702 xsa_logic.xdata1.xi43.xn1.      nmos_b             1.00 
      703 xsa_logic.xdata1.xi43.xi9.      nmos_b             1.00 
      704 xsa_logic.xdata1.xi43.xp1.      pmos_b             1.00 
      705 xsa_logic.xdata1.xi43.xi10.     pmos_b             1.00 
      706 xsa_logic.xdata1.xi31.xn1.      nmos_b             1.00 
      707 xsa_logic.xdata1.xi31.xi9.      nmos_b             1.00 
      708 xsa_logic.xdata1.xi31.xp1.      pmos_b             1.00 
      709 xsa_logic.xdata1.xi31.xi10.     pmos_b             1.00 
      710 xsa_logic.xdata1.xi37.xn1.      nmos_b             1.00 
      711 xsa_logic.xdata1.xi37.xi9.      nmos_b             1.00 
      712 xsa_logic.xdata1.xi37.xp1.      pmos_b             1.00 
      713 xsa_logic.xdata1.xi37.xi10.     pmos_b             1.00 
      714 xsa_logic.xdata0.xi1.xp1.       pmos_b             1.00 
      715 xsa_logic.xdata0.xi1.xn1.       nmos_b             1.00 
      716 xsa_logic.xdata0.xi42.xn1.      nmos_b             1.00 
      717 xsa_logic.xdata0.xi42.xi9.      nmos_b             1.00 
      718 xsa_logic.xdata0.xi42.xp1.      pmos_b             1.00 
      719 xsa_logic.xdata0.xi42.xi10.     pmos_b             1.00 
      720 xsa_logic.xdata0.xi43.xn1.      nmos_b             1.00 
      721 xsa_logic.xdata0.xi43.xi9.      nmos_b             1.00 
      722 xsa_logic.xdata0.xi43.xp1.      pmos_b             1.00 
      723 xsa_logic.xdata0.xi43.xi10.     pmos_b             1.00 
      724 xsa_logic.xdata0.xi31.xn1.      nmos_b             1.00 
      725 xsa_logic.xdata0.xi31.xi9.      nmos_b             1.00 
      726 xsa_logic.xdata0.xi31.xp1.      pmos_b             1.00 
      727 xsa_logic.xdata0.xi31.xi10.     pmos_b             1.00 
      728 xsa_logic.xdata0.xi37.xn1.      nmos_b             1.00 
      729 xsa_logic.xdata0.xi37.xi9.      nmos_b             1.00 
      730 xsa_logic.xdata0.xi37.xp1.      pmos_b             1.00 
      731 xsa_logic.xdata0.xi37.xi10.     pmos_b             1.00 
      732 xsa_logic.xdata5.xi1.xp1.       pmos_b             1.00 
      733 xsa_logic.xdata5.xi1.xn1.       nmos_b             1.00 
      734 xsa_logic.xdata5.xi42.xn1.      nmos_b             1.00 
      735 xsa_logic.xdata5.xi42.xi9.      nmos_b             1.00 
      736 xsa_logic.xdata5.xi42.xp1.      pmos_b             1.00 
      737 xsa_logic.xdata5.xi42.xi10.     pmos_b             1.00 
      738 xsa_logic.xdata5.xi43.xn1.      nmos_b             1.00 
      739 xsa_logic.xdata5.xi43.xi9.      nmos_b             1.00 
      740 xsa_logic.xdata5.xi43.xp1.      pmos_b             1.00 
      741 xsa_logic.xdata5.xi43.xi10.     pmos_b             1.00 
      742 xsa_logic.xdata5.xi31.xn1.      nmos_b             1.00 
      743 xsa_logic.xdata5.xi31.xi9.      nmos_b             1.00 
      744 xsa_logic.xdata5.xi31.xp1.      pmos_b             1.00 
      745 xsa_logic.xdata5.xi31.xi10.     pmos_b             1.00 
      746 xsa_logic.xdata5.xi37.xn1.      nmos_b             1.00 
      747 xsa_logic.xdata5.xi37.xi9.      nmos_b             1.00 
      748 xsa_logic.xdata5.xi37.xp1.      pmos_b             1.00 
      749 xsa_logic.xdata5.xi37.xi10.     pmos_b             1.00 
      750 xsa_logic.xrsh0.xi1.xp1.        pmos_b             1.00 
      751 xsa_logic.xrsh0.xi1.xn1.        nmos_b             1.00 
      752 xsa_logic.xrsh0.xi42.xn1.       nmos_b             1.00 
      753 xsa_logic.xrsh0.xi42.xi9.       nmos_b             1.00 
      754 xsa_logic.xrsh0.xi42.xp1.       pmos_b             1.00 
      755 xsa_logic.xrsh0.xi42.xi10.      pmos_b             1.00 
      756 xsa_logic.xrsh0.xi43.xn1.       nmos_b             1.00 
      757 xsa_logic.xrsh0.xi43.xi9.       nmos_b             1.00 
      758 xsa_logic.xrsh0.xi43.xp1.       pmos_b             1.00 
      759 xsa_logic.xrsh0.xi43.xi10.      pmos_b             1.00 
      760 xsa_logic.xrsh0.xi31.xn1.       nmos_b             1.00 
      761 xsa_logic.xrsh0.xi31.xi9.       nmos_b             1.00 
      762 xsa_logic.xrsh0.xi31.xp1.       pmos_b             1.00 
      763 xsa_logic.xrsh0.xi31.xi10.      pmos_b             1.00 
      764 xsa_logic.xrsh0.xi37.xn1.       nmos_b             1.00 
      765 xsa_logic.xrsh0.xi37.xi9.       nmos_b             1.00 
      766 xsa_logic.xrsh0.xi37.xp1.       pmos_b             1.00 
      767 xsa_logic.xrsh0.xi37.xi10.      pmos_b             1.00 
      768 xsa_logic.xrsh3.xi1.xp1.        pmos_b             1.00 
      769 xsa_logic.xrsh3.xi1.xn1.        nmos_b             1.00 
      770 xsa_logic.xrsh3.xi42.xn1.       nmos_b             1.00 
      771 xsa_logic.xrsh3.xi42.xi9.       nmos_b             1.00 
      772 xsa_logic.xrsh3.xi42.xp1.       pmos_b             1.00 
      773 xsa_logic.xrsh3.xi42.xi10.      pmos_b             1.00 
      774 xsa_logic.xrsh3.xi43.xn1.       nmos_b             1.00 
      775 xsa_logic.xrsh3.xi43.xi9.       nmos_b             1.00 
      776 xsa_logic.xrsh3.xi43.xp1.       pmos_b             1.00 
      777 xsa_logic.xrsh3.xi43.xi10.      pmos_b             1.00 
      778 xsa_logic.xrsh3.xi31.xn1.       nmos_b             1.00 
      779 xsa_logic.xrsh3.xi31.xi9.       nmos_b             1.00 
      780 xsa_logic.xrsh3.xi31.xp1.       pmos_b             1.00 
      781 xsa_logic.xrsh3.xi31.xi10.      pmos_b             1.00 
      782 xsa_logic.xrsh3.xi37.xn1.       nmos_b             1.00 
      783 xsa_logic.xrsh3.xi37.xi9.       nmos_b             1.00 
      784 xsa_logic.xrsh3.xi37.xp1.       pmos_b             1.00 
      785 xsa_logic.xrsh3.xi37.xi10.      pmos_b             1.00 
      786 xsa_logic.xrsh2.xi1.xp1.        pmos_b             1.00 
      787 xsa_logic.xrsh2.xi1.xn1.        nmos_b             1.00 
      788 xsa_logic.xrsh2.xi42.xn1.       nmos_b             1.00 
      789 xsa_logic.xrsh2.xi42.xi9.       nmos_b             1.00 
      790 xsa_logic.xrsh2.xi42.xp1.       pmos_b             1.00 
      791 xsa_logic.xrsh2.xi42.xi10.      pmos_b             1.00 
      792 xsa_logic.xrsh2.xi43.xn1.       nmos_b             1.00 
      793 xsa_logic.xrsh2.xi43.xi9.       nmos_b             1.00 
      794 xsa_logic.xrsh2.xi43.xp1.       pmos_b             1.00 
      795 xsa_logic.xrsh2.xi43.xi10.      pmos_b             1.00 
      796 xsa_logic.xrsh2.xi31.xn1.       nmos_b             1.00 
      797 xsa_logic.xrsh2.xi31.xi9.       nmos_b             1.00 
      798 xsa_logic.xrsh2.xi31.xp1.       pmos_b             1.00 
      799 xsa_logic.xrsh2.xi31.xi10.      pmos_b             1.00 
      800 xsa_logic.xrsh2.xi37.xn1.       nmos_b             1.00 
      801 xsa_logic.xrsh2.xi37.xi9.       nmos_b             1.00 
      802 xsa_logic.xrsh2.xi37.xp1.       pmos_b             1.00 
      803 xsa_logic.xrsh2.xi37.xi10.      pmos_b             1.00 
      804 xsa_logic.xrsh1.xi1.xp1.        pmos_b             1.00 
      805 xsa_logic.xrsh1.xi1.xn1.        nmos_b             1.00 
      806 xsa_logic.xrsh1.xi42.xn1.       nmos_b             1.00 
      807 xsa_logic.xrsh1.xi42.xi9.       nmos_b             1.00 
      808 xsa_logic.xrsh1.xi42.xp1.       pmos_b             1.00 
      809 xsa_logic.xrsh1.xi42.xi10.      pmos_b             1.00 
      810 xsa_logic.xrsh1.xi43.xn1.       nmos_b             1.00 
      811 xsa_logic.xrsh1.xi43.xi9.       nmos_b             1.00 
      812 xsa_logic.xrsh1.xi43.xp1.       pmos_b             1.00 
      813 xsa_logic.xrsh1.xi43.xi10.      pmos_b             1.00 
      814 xsa_logic.xrsh1.xi31.xn1.       nmos_b             1.00 
      815 xsa_logic.xrsh1.xi31.xi9.       nmos_b             1.00 
      816 xsa_logic.xrsh1.xi31.xp1.       pmos_b             1.00 
      817 xsa_logic.xrsh1.xi31.xi10.      pmos_b             1.00 
      818 xsa_logic.xrsh1.xi37.xn1.       nmos_b             1.00 
      819 xsa_logic.xrsh1.xi37.xi9.       nmos_b             1.00 
      820 xsa_logic.xrsh1.xi37.xp1.       pmos_b             1.00 
      821 xsa_logic.xrsh1.xi37.xi10.      pmos_b             1.00 
      822 xsa_logic.xrsh4.xi1.xp1.        pmos_b             1.00 
      823 xsa_logic.xrsh4.xi1.xn1.        nmos_b             1.00 
      824 xsa_logic.xrsh4.xi42.xn1.       nmos_b             1.00 
      825 xsa_logic.xrsh4.xi42.xi9.       nmos_b             1.00 
      826 xsa_logic.xrsh4.xi42.xp1.       pmos_b             1.00 
      827 xsa_logic.xrsh4.xi42.xi10.      pmos_b             1.00 
      828 xsa_logic.xrsh4.xi43.xn1.       nmos_b             1.00 
      829 xsa_logic.xrsh4.xi43.xi9.       nmos_b             1.00 
      830 xsa_logic.xrsh4.xi43.xp1.       pmos_b             1.00 
      831 xsa_logic.xrsh4.xi43.xi10.      pmos_b             1.00 
      832 xsa_logic.xrsh4.xi31.xn1.       nmos_b             1.00 
      833 xsa_logic.xrsh4.xi31.xi9.       nmos_b             1.00 
      834 xsa_logic.xrsh4.xi31.xp1.       pmos_b             1.00 
      835 xsa_logic.xrsh4.xi31.xi10.      pmos_b             1.00 
      836 xsa_logic.xrsh4.xi37.xn1.       nmos_b             1.00 
      837 xsa_logic.xrsh4.xi37.xi9.       nmos_b             1.00 
      838 xsa_logic.xrsh4.xi37.xp1.       pmos_b             1.00 
      839 xsa_logic.xrsh4.xi37.xi10.      pmos_b             1.00 
      840 xsa_logic.xdata7.xi1.xp1.       pmos_b             1.00 
      841 xsa_logic.xdata7.xi1.xn1.       nmos_b             1.00 
      842 xsa_logic.xdata7.xi42.xn1.      nmos_b             1.00 
      843 xsa_logic.xdata7.xi42.xi9.      nmos_b             1.00 
      844 xsa_logic.xdata7.xi42.xp1.      pmos_b             1.00 
      845 xsa_logic.xdata7.xi42.xi10.     pmos_b             1.00 
      846 xsa_logic.xdata7.xi43.xn1.      nmos_b             1.00 
      847 xsa_logic.xdata7.xi43.xi9.      nmos_b             1.00 
      848 xsa_logic.xdata7.xi43.xp1.      pmos_b             1.00 
      849 xsa_logic.xdata7.xi43.xi10.     pmos_b             1.00 
      850 xsa_logic.xdata7.xi31.xn1.      nmos_b             1.00 
      851 xsa_logic.xdata7.xi31.xi9.      nmos_b             1.00 
      852 xsa_logic.xdata7.xi31.xp1.      pmos_b             1.00 
      853 xsa_logic.xdata7.xi31.xi10.     pmos_b             1.00 
      854 xsa_logic.xdata7.xi37.xn1.      nmos_b             1.00 
      855 xsa_logic.xdata7.xi37.xi9.      nmos_b             1.00 
      856 xsa_logic.xdata7.xi37.xp1.      pmos_b             1.00 
      857 xsa_logic.xdata7.xi37.xi10.     pmos_b             1.00 
      858 xsa_logic.xrsh5.xi1.xp1.        pmos_b             1.00 
      859 xsa_logic.xrsh5.xi1.xn1.        nmos_b             1.00 
      860 xsa_logic.xrsh5.xi42.xn1.       nmos_b             1.00 
      861 xsa_logic.xrsh5.xi42.xi9.       nmos_b             1.00 
      862 xsa_logic.xrsh5.xi42.xp1.       pmos_b             1.00 
      863 xsa_logic.xrsh5.xi42.xi10.      pmos_b             1.00 
      864 xsa_logic.xrsh5.xi43.xn1.       nmos_b             1.00 
      865 xsa_logic.xrsh5.xi43.xi9.       nmos_b             1.00 
      866 xsa_logic.xrsh5.xi43.xp1.       pmos_b             1.00 
      867 xsa_logic.xrsh5.xi43.xi10.      pmos_b             1.00 
      868 xsa_logic.xrsh5.xi31.xn1.       nmos_b             1.00 
      869 xsa_logic.xrsh5.xi31.xi9.       nmos_b             1.00 
      870 xsa_logic.xrsh5.xi31.xp1.       pmos_b             1.00 
      871 xsa_logic.xrsh5.xi31.xi10.      pmos_b             1.00 
      872 xsa_logic.xrsh5.xi37.xn1.       nmos_b             1.00 
      873 xsa_logic.xrsh5.xi37.xi9.       nmos_b             1.00 
      874 xsa_logic.xrsh5.xi37.xp1.       pmos_b             1.00 
      875 xsa_logic.xrsh5.xi37.xi10.      pmos_b             1.00 
      876 xsa_logic.xdata6.xi1.xp1.       pmos_b             1.00 
      877 xsa_logic.xdata6.xi1.xn1.       nmos_b             1.00 
      878 xsa_logic.xdata6.xi42.xn1.      nmos_b             1.00 
      879 xsa_logic.xdata6.xi42.xi9.      nmos_b             1.00 
      880 xsa_logic.xdata6.xi42.xp1.      pmos_b             1.00 
      881 xsa_logic.xdata6.xi42.xi10.     pmos_b             1.00 
      882 xsa_logic.xdata6.xi43.xn1.      nmos_b             1.00 
      883 xsa_logic.xdata6.xi43.xi9.      nmos_b             1.00 
      884 xsa_logic.xdata6.xi43.xp1.      pmos_b             1.00 
      885 xsa_logic.xdata6.xi43.xi10.     pmos_b             1.00 
      886 xsa_logic.xdata6.xi31.xn1.      nmos_b             1.00 
      887 xsa_logic.xdata6.xi31.xi9.      nmos_b             1.00 
      888 xsa_logic.xdata6.xi31.xp1.      pmos_b             1.00 
      889 xsa_logic.xdata6.xi31.xi10.     pmos_b             1.00 
      890 xsa_logic.xdata6.xi37.xn1.      nmos_b             1.00 
      891 xsa_logic.xdata6.xi37.xi9.      nmos_b             1.00 
      892 xsa_logic.xdata6.xi37.xp1.      pmos_b             1.00 
      893 xsa_logic.xdata6.xi37.xi10.     pmos_b             1.00 
      894 xsa_logic.xdata4.xi1.xp1.       pmos_b             1.00 
      895 xsa_logic.xdata4.xi1.xn1.       nmos_b             1.00 
      896 xsa_logic.xdata4.xi42.xn1.      nmos_b             1.00 
      897 xsa_logic.xdata4.xi42.xi9.      nmos_b             1.00 
      898 xsa_logic.xdata4.xi42.xp1.      pmos_b             1.00 
      899 xsa_logic.xdata4.xi42.xi10.     pmos_b             1.00 
      900 xsa_logic.xdata4.xi43.xn1.      nmos_b             1.00 
      901 xsa_logic.xdata4.xi43.xi9.      nmos_b             1.00 
      902 xsa_logic.xdata4.xi43.xp1.      pmos_b             1.00 
      903 xsa_logic.xdata4.xi43.xi10.     pmos_b             1.00 
      904 xsa_logic.xdata4.xi31.xn1.      nmos_b             1.00 
      905 xsa_logic.xdata4.xi31.xi9.      nmos_b             1.00 
      906 xsa_logic.xdata4.xi31.xp1.      pmos_b             1.00 
      907 xsa_logic.xdata4.xi31.xi10.     pmos_b             1.00 
      908 xsa_logic.xdata4.xi37.xn1.      nmos_b             1.00 
      909 xsa_logic.xdata4.xi37.xi9.      nmos_b             1.00 
      910 xsa_logic.xdata4.xi37.xp1.      pmos_b             1.00 
      911 xsa_logic.xdata4.xi37.xi10.     pmos_b             1.00 
      912 xsa_logic.xrsh6.xi1.xp1.        pmos_b             1.00 
      913 xsa_logic.xrsh6.xi1.xn1.        nmos_b             1.00 
      914 xsa_logic.xrsh6.xi42.xn1.       nmos_b             1.00 
      915 xsa_logic.xrsh6.xi42.xi9.       nmos_b             1.00 
      916 xsa_logic.xrsh6.xi42.xp1.       pmos_b             1.00 
      917 xsa_logic.xrsh6.xi42.xi10.      pmos_b             1.00 
      918 xsa_logic.xrsh6.xi43.xn1.       nmos_b             1.00 
      919 xsa_logic.xrsh6.xi43.xi9.       nmos_b             1.00 
      920 xsa_logic.xrsh6.xi43.xp1.       pmos_b             1.00 
      921 xsa_logic.xrsh6.xi43.xi10.      pmos_b             1.00 
      922 xsa_logic.xrsh6.xi31.xn1.       nmos_b             1.00 
      923 xsa_logic.xrsh6.xi31.xi9.       nmos_b             1.00 
      924 xsa_logic.xrsh6.xi31.xp1.       pmos_b             1.00 
      925 xsa_logic.xrsh6.xi31.xi10.      pmos_b             1.00 
      926 xsa_logic.xrsh6.xi37.xn1.       nmos_b             1.00 
      927 xsa_logic.xrsh6.xi37.xi9.       nmos_b             1.00 
      928 xsa_logic.xrsh6.xi37.xp1.       pmos_b             1.00 
      929 xsa_logic.xrsh6.xi37.xi10.      pmos_b             1.00 
      930 xsa_logic.xrsh7.xi1.xp1.        pmos_b             1.00 
      931 xsa_logic.xrsh7.xi1.xn1.        nmos_b             1.00 
      932 xsa_logic.xrsh7.xi42.xn1.       nmos_b             1.00 
      933 xsa_logic.xrsh7.xi42.xi9.       nmos_b             1.00 
      934 xsa_logic.xrsh7.xi42.xp1.       pmos_b             1.00 
      935 xsa_logic.xrsh7.xi42.xi10.      pmos_b             1.00 
      936 xsa_logic.xrsh7.xi43.xn1.       nmos_b             1.00 
      937 xsa_logic.xrsh7.xi43.xi9.       nmos_b             1.00 
      938 xsa_logic.xrsh7.xi43.xp1.       pmos_b             1.00 
      939 xsa_logic.xrsh7.xi43.xi10.      pmos_b             1.00 
      940 xsa_logic.xrsh7.xi31.xn1.       nmos_b             1.00 
      941 xsa_logic.xrsh7.xi31.xi9.       nmos_b             1.00 
      942 xsa_logic.xrsh7.xi31.xp1.       pmos_b             1.00 
      943 xsa_logic.xrsh7.xi31.xi10.      pmos_b             1.00 
      944 xsa_logic.xrsh7.xi37.xn1.       nmos_b             1.00 
      945 xsa_logic.xrsh7.xi37.xi9.       nmos_b             1.00 
      946 xsa_logic.xrsh7.xi37.xp1.       pmos_b             1.00 
      947 xsa_logic.xrsh7.xi37.xi10.      pmos_b             1.00 
      948 xc_array_p.xsa_dac.xswdac_0.xi7.xp1.
                                            pmos_b             1.00 
      949 xc_array_p.xsa_dac.xswdac_0.xi7.xn1.
                                            nmos_b             1.00 
      950 xc_array_p.xsa_dac.xswdac_0.xi3.xp1.
                                            pmos_b             1.00 
      951 xc_array_p.xsa_dac.xswdac_0.xi3.xn1.
                                            nmos_b             1.00 
      952 xc_array_p.xsa_dac.xswdac_0.xi20.xp1.
                                            pmos_b             1.00 
      953 xc_array_p.xsa_dac.xswdac_0.xi20.xn1.
                                            nmos_b             1.00 
      954 xc_array_p.xsa_dac.xswdac_0.xi1.xp1.
                                            pmos_b             1.00 
      955 xc_array_p.xsa_dac.xswdac_0.xi1.xn1.
                                            nmos_b             1.00 
      956 xc_array_p.xsa_dac.xswdac_0.xi2.xn1.
                                            nmos_b             1.00 
      957 xc_array_p.xsa_dac.xswdac_0.xi2.xi9.
                                            nmos_b             1.00 
      958 xc_array_p.xsa_dac.xswdac_0.xi2.xp1.
                                            pmos_b             1.00 
      959 xc_array_p.xsa_dac.xswdac_0.xi2.xi10.
                                            pmos_b             1.00 
      960 xc_array_p.xsa_dac.xswdac_0.xi19.xn1.
                                            nmos_b             1.00 
      961 xc_array_p.xsa_dac.xswdac_0.xi19.xi9.
                                            nmos_b             1.00 
      962 xc_array_p.xsa_dac.xswdac_0.xi19.xp1.
                                            pmos_b             1.00 
      963 xc_array_p.xsa_dac.xswdac_0.xi19.xi10.
                                            pmos_b             1.00 
      964 xc_array_p.xsa_dac.xswdac_1.xi7.xp1.
                                            pmos_b             1.00 
      965 xc_array_p.xsa_dac.xswdac_1.xi7.xn1.
                                            nmos_b             1.00 
      966 xc_array_p.xsa_dac.xswdac_1.xi3.xp1.
                                            pmos_b             1.00 
      967 xc_array_p.xsa_dac.xswdac_1.xi3.xn1.
                                            nmos_b             1.00 
      968 xc_array_p.xsa_dac.xswdac_1.xi20.xp1.
                                            pmos_b             1.00 
      969 xc_array_p.xsa_dac.xswdac_1.xi20.xn1.
                                            nmos_b             1.00 
      970 xc_array_p.xsa_dac.xswdac_1.xi1.xp1.
                                            pmos_b             1.00 
      971 xc_array_p.xsa_dac.xswdac_1.xi1.xn1.
                                            nmos_b             1.00 
      972 xc_array_p.xsa_dac.xswdac_1.xi2.xn1.
                                            nmos_b             1.00 
      973 xc_array_p.xsa_dac.xswdac_1.xi2.xi9.
                                            nmos_b             1.00 
      974 xc_array_p.xsa_dac.xswdac_1.xi2.xp1.
                                            pmos_b             1.00 
      975 xc_array_p.xsa_dac.xswdac_1.xi2.xi10.
                                            pmos_b             1.00 
      976 xc_array_p.xsa_dac.xswdac_1.xi19.xn1.
                                            nmos_b             1.00 
      977 xc_array_p.xsa_dac.xswdac_1.xi19.xi9.
                                            nmos_b             1.00 
      978 xc_array_p.xsa_dac.xswdac_1.xi19.xp1.
                                            pmos_b             1.00 
      979 xc_array_p.xsa_dac.xswdac_1.xi19.xi10.
                                            pmos_b             1.00 
      980 xc_array_p.xsa_dac.xswdac_2.xi7.xp1.
                                            pmos_b             1.00 
      981 xc_array_p.xsa_dac.xswdac_2.xi7.xn1.
                                            nmos_b             1.00 
      982 xc_array_p.xsa_dac.xswdac_2.xi3.xp1.
                                            pmos_b             1.00 
      983 xc_array_p.xsa_dac.xswdac_2.xi3.xn1.
                                            nmos_b             1.00 
      984 xc_array_p.xsa_dac.xswdac_2.xi20.xp1.
                                            pmos_b             1.00 
      985 xc_array_p.xsa_dac.xswdac_2.xi20.xn1.
                                            nmos_b             1.00 
      986 xc_array_p.xsa_dac.xswdac_2.xi1.xp1.
                                            pmos_b             1.00 
      987 xc_array_p.xsa_dac.xswdac_2.xi1.xn1.
                                            nmos_b             1.00 
      988 xc_array_p.xsa_dac.xswdac_2.xi2.xn1.
                                            nmos_b             1.00 
      989 xc_array_p.xsa_dac.xswdac_2.xi2.xi9.
                                            nmos_b             1.00 
      990 xc_array_p.xsa_dac.xswdac_2.xi2.xp1.
                                            pmos_b             1.00 
      991 xc_array_p.xsa_dac.xswdac_2.xi2.xi10.
                                            pmos_b             1.00 
      992 xc_array_p.xsa_dac.xswdac_2.xi19.xn1.
                                            nmos_b             1.00 
      993 xc_array_p.xsa_dac.xswdac_2.xi19.xi9.
                                            nmos_b             1.00 
      994 xc_array_p.xsa_dac.xswdac_2.xi19.xp1.
                                            pmos_b             1.00 
      995 xc_array_p.xsa_dac.xswdac_2.xi19.xi10.
                                            pmos_b             1.00 
      996 xc_array_p.xsa_dac.xswdac_3.xi7.xp1.
                                            pmos_b             1.00 
      997 xc_array_p.xsa_dac.xswdac_3.xi7.xn1.
                                            nmos_b             1.00 
      998 xc_array_p.xsa_dac.xswdac_3.xi3.xp1.
                                            pmos_b             1.00 
      999 xc_array_p.xsa_dac.xswdac_3.xi3.xn1.
                                            nmos_b             1.00 
     1000 xc_array_p.xsa_dac.xswdac_3.xi20.xp1.
                                            pmos_b             1.00 
     1001 xc_array_p.xsa_dac.xswdac_3.xi20.xn1.
                                            nmos_b             1.00 
     1002 xc_array_p.xsa_dac.xswdac_3.xi1.xp1.
                                            pmos_b             1.00 
     1003 xc_array_p.xsa_dac.xswdac_3.xi1.xn1.
                                            nmos_b             1.00 
     1004 xc_array_p.xsa_dac.xswdac_3.xi2.xn1.
                                            nmos_b             1.00 
     1005 xc_array_p.xsa_dac.xswdac_3.xi2.xi9.
                                            nmos_b             1.00 
     1006 xc_array_p.xsa_dac.xswdac_3.xi2.xp1.
                                            pmos_b             1.00 
     1007 xc_array_p.xsa_dac.xswdac_3.xi2.xi10.
                                            pmos_b             1.00 
     1008 xc_array_p.xsa_dac.xswdac_3.xi19.xn1.
                                            nmos_b             1.00 
     1009 xc_array_p.xsa_dac.xswdac_3.xi19.xi9.
                                            nmos_b             1.00 
     1010 xc_array_p.xsa_dac.xswdac_3.xi19.xp1.
                                            pmos_b             1.00 
     1011 xc_array_p.xsa_dac.xswdac_3.xi19.xi10.
                                            pmos_b             1.00 
     1012 xc_array_p.xsa_dac.xswdac_4.xi7.xp1.
[...]
  r value      10.0000       10.0000      1.000e+15      10.0000 



 subckt        xsa_logi      xsa_logi      xsa_logi      xsa_logi
 element   842:g1        843:g1        844:g1        845:g1      
  r value     1.000e+15     1.000e+15      10.0000       10.0000 



 subckt        xsa_logi      xsa_logi      xsa_logi      xsa_logi
 element   846:g1        847:g1        848:g1        849:g1      
  r value      10.0000      1.000e+15      10.0000      1.000e+15



 subckt        xsa_logi      xsa_logi      xsa_logi      xsa_logi
 element   850:g1        851:g1        852:g1        853:g1      
  r value      10.0000      1.000e+15      10.0000      1.000e+15



 subckt        xsa_logi      xsa_logi      xsa_logi      xsa_logi
 element   854:g1        855:g1        856:g1        857:g1      
  r value     1.000e+15     1.000e+15      10.0000       10.0000 



 subckt        xsa_logi      xsa_logi      xsa_logi      xsa_logi
 element   858:g1        859:g1        860:g1        861:g1      
  r value     1.000e+15      10.0000      1.000e+15     1.000e+15



 subckt        xsa_logi      xsa_logi      xsa_logi      xsa_logi
 element   862:g1        863:g1        864:g1        865:g1      
  r value      10.0000       10.0000       10.0000      1.000e+15



 subckt        xsa_logi      xsa_logi      xsa_logi      xsa_logi
 element   866:g1        867:g1        868:g1        869:g1      
  r value      10.0000      1.000e+15      10.0000      1.000e+15



 subckt        xsa_logi      xsa_logi      xsa_logi      xsa_logi
 element   870:g1        871:g1        872:g1        873:g1      
  r value      10.0000      1.000e+15     1.000e+15     1.000e+15



 subckt        xsa_logi      xsa_logi      xsa_logi      xsa_logi
 element   874:g1        875:g1        876:g1        877:g1      
  r value      10.0000       10.0000       10.0000      1.000e+15



 subckt        xsa_logi      xsa_logi      xsa_logi      xsa_logi
 element   878:g1        879:g1        880:g1        881:g1      
  r value     1.000e+15     1.000e+15      10.0000       10.0000 



 subckt        xsa_logi      xsa_logi      xsa_logi      xsa_logi
 element   882:g1        883:g1        884:g1        885:g1      
  r value      10.0000      1.000e+15      10.0000      1.000e+15



 subckt        xsa_logi      xsa_logi      xsa_logi      xsa_logi
 element   886:g1        887:g1        888:g1        889:g1      
  r value      10.0000      1.000e+15      10.0000      1.000e+15



 subckt        xsa_logi      xsa_logi      xsa_logi      xsa_logi
 element   890:g1        891:g1        892:g1        893:g1      
  r value     1.000e+15     1.000e+15      10.0000       10.0000 



 subckt        xsa_logi      xsa_logi      xsa_logi      xsa_logi
 element   894:g1        895:g1        896:g1        897:g1      
  r value      10.0000      1.000e+15     1.000e+15     1.000e+15



 subckt        xsa_logi      xsa_logi      xsa_logi      xsa_logi
 element   898:g1        899:g1        900:g1        901:g1      
  r value      10.0000       10.0000       10.0000      1.000e+15



 subckt        xsa_logi      xsa_logi      xsa_logi      xsa_logi
 element   902:g1        903:g1        904:g1        905:g1      
  r value      10.0000      1.000e+15      10.0000      1.000e+15



 subckt        xsa_logi      xsa_logi      xsa_logi      xsa_logi
 element   906:g1        907:g1        908:g1        909:g1      
  r value      10.0000      1.000e+15     1.000e+15     1.000e+15



 subckt        xsa_logi      xsa_logi      xsa_logi      xsa_logi
 element   910:g1        911:g1        912:g1        913:g1      
  r value      10.0000       10.0000      1.000e+15      10.0000 



 subckt        xsa_logi      xsa_logi      xsa_logi      xsa_logi
 element   914:g1        915:g1        916:g1        917:g1      
  r value     1.000e+15     1.000e+15      10.0000       10.0000 



 subckt        xsa_logi      xsa_logi      xsa_logi      xsa_logi
 element   918:g1        919:g1        920:g1        921:g1      
  r value      10.0000      1.000e+15      10.0000      1.000e+15



 subckt        xsa_logi      xsa_logi      xsa_logi      xsa_logi
 element   922:g1        923:g1        924:g1        925:g1      
  r value      10.0000      1.000e+15      10.0000      1.000e+15



 subckt        xsa_logi      xsa_logi      xsa_logi      xsa_logi
 element   926:g1        927:g1        928:g1        929:g1      
  r value     1.000e+15     1.000e+15      10.0000       10.0000 



 subckt        xsa_logi      xsa_logi      xsa_logi      xsa_logi
 element   930:g1        931:g1        932:g1        933:g1      
  r value     1.000e+15      10.0000       10.0000      1.000e+15



 subckt        xsa_logi      xsa_logi      xsa_logi      xsa_logi
 element   934:g1        935:g1        936:g1        937:g1      
  r value      10.0000      1.000e+15     1.000e+15     1.000e+15



 subckt        xsa_logi      xsa_logi      xsa_logi      xsa_logi
 element   938:g1        939:g1        940:g1        941:g1      
  r value      10.0000       10.0000      1.000e+15     1.000e+15



 subckt        xsa_logi      xsa_logi      xsa_logi      xsa_logi
 element   942:g1        943:g1        944:g1        945:g1      
  r value      10.0000       10.0000       10.0000      1.000e+15



 subckt        xsa_logi      xsa_logi      xc_array      xc_array
 element   946:g1        947:g1        948:g1        949:g1      
  r value      10.0000      1.000e+15      10.0000      1.000e+15



 subckt        xc_array      xc_array      xc_array      xc_array
 element   950:g1        951:g1        952:g1        953:g1      
  r value     1.000e+15      10.0000       10.0000      1.000e+15



 subckt        xc_array      xc_array      xc_array      xc_array
 element   954:g1        955:g1        956:g1        957:g1      
  r value     1.000e+15      10.0000      1.000e+15      10.0000 



 subckt        xc_array      xc_array      xc_array      xc_array
 element   958:g1        959:g1        960:g1        961:g1      
  r value     1.000e+15      10.0000       10.0000       10.0000 



 subckt        xc_array      xc_array      xc_array      xc_array
 element   962:g1        963:g1        964:g1        965:g1      
  r value     1.000e+15     1.000e+15      10.0000      1.000e+15



 subckt        xc_array      xc_array      xc_array      xc_array
 element   966:g1        967:g1        968:g1        969:g1      
  r value     1.000e+15      10.0000       10.0000      1.000e+15



 subckt        xc_array      xc_array      xc_array      xc_array
 element   970:g1        971:g1        972:g1        973:g1      
  r value     1.000e+15      10.0000      1.000e+15      10.0000 



 subckt        xc_array      xc_array      xc_array      xc_array
 element   974:g1        975:g1        976:g1        977:g1      
  r value     1.000e+15      10.0000       10.0000       10.0000 



 subckt        xc_array      xc_array      xc_array      xc_array
 element   978:g1        979:g1        980:g1        981:g1      
  r value     1.000e+15     1.000e+15      10.0000      1.000e+15



 subckt        xc_array      xc_array      xc_array      xc_array
 element   982:g1        983:g1        984:g1        985:g1      
  r value     1.000e+15      10.0000       10.0000      1.000e+15



 subckt        xc_array      xc_array      xc_array      xc_array
 element   986:g1        987:g1        988:g1        989:g1      
  r value     1.000e+15      10.0000      1.000e+15      10.0000 



 subckt        xc_array      xc_array      xc_array      xc_array
 element   990:g1        991:g1        992:g1        993:g1      
  r value     1.000e+15      10.0000       10.0000       10.0000 



 subckt        xc_array      xc_array      xc_array      xc_array
 element   994:g1        995:g1        996:g1        997:g1      
  r value     1.000e+15     1.000e+15      10.0000      1.000e+15



 subckt        xc_array      xc_array      xc_array      xc_array
 element   998:g1        999:g1       1000:g1       1001:g1      
  r value     1.000e+15      10.0000       10.0000      1.000e+15



 subckt        xc_array      xc_array      xc_array      xc_array
 element  1002:g1       1003:g1       1004:g1       1005:g1      
  r value     1.000e+15      10.0000      1.000e+15      10.0000 



 subckt        xc_array      xc_array      xc_array      xc_array
 element  1006:g1       1007:g1       1008:g1       1009:g1      
  r value     1.000e+15      10.0000       10.0000       10.0000 



 subckt        xc_array      xc_array      xc_array      xc_array
 element  1010:g1       1011:g1       1012:g1       1013:g1      
  r value     1.000e+15     1.000e+15      10.0000      1.000e+15



 subckt        xc_array      xc_array      xc_array      xc_array
 element  1014:g1       1015:g1       1016:g1       1017:g1      
  r value     1.000e+15      10.0000       10.0000      1.000e+15



 subckt        xc_array      xc_array      xc_array      xc_array
 element  1018:g1       1019:g1       1020:g1       1021:g1      
  r value     1.000e+15      10.0000      1.000e+15      10.0000 



 subckt        xc_array      xc_array      xc_array      xc_array
 element  1022:g1       1023:g1       1024:g1       1025:g1      
  r value     1.000e+15      10.0000       10.0000       10.0000 



 subckt        xc_array      xc_array      xc_array      xc_array
 element  1026:g1       1027:g1       1028:g1       1029:g1      
  r value     1.000e+15     1.000e+15      10.0000      1.000e+15



 subckt        xc_array      xc_array      xc_array      xc_array
 element  1030:g1       1031:g1       1032:g1       1033:g1      
  r value     1.000e+15      10.0000       10.0000      1.000e+15



 subckt        xc_array      xc_array      xc_array      xc_array
 element  1034:g1       1035:g1       1036:g1       1037:g1      
  r value     1.000e+15      10.0000      1.000e+15      10.0000 



 subckt        xc_array      xc_array      xc_array      xc_array
 element  1038:g1       1039:g1       1040:g1       1041:g1      
  r value     1.000e+15      10.0000       10.0000       10.0000 



 subckt        xc_array      xc_array      xc_array      xc_array
 element  1042:g1       1043:g1       1044:g1       1045:g1      
  r value     1.000e+15     1.000e+15      10.0000      1.000e+15



 subckt        xc_array      xc_array      xc_array      xc_array
 element  1046:g1       1047:g1       1048:g1       1049:g1      
  r value     1.000e+15      10.0000       10.0000      1.000e+15



 subckt        xc_array      xc_array      xc_array      xc_array
 element  1050:g1       1051:g1       1052:g1       1053:g1      
  r value     1.000e+15      10.0000      1.000e+15      10.0000 



 subckt        xc_array      xc_array      xc_array      xc_array
 element  1054:g1       1055:g1       1056:g1       1057:g1      
  r value     1.000e+15      10.0000       10.0000       10.0000 



 subckt        xc_array      xc_array      xc_array      xc_array
 element  1058:g1       1059:g1       1060:g1       1061:g1      
  r value     1.000e+15     1.000e+15      10.0000      1.000e+15



 subckt        xc_array      xc_array      xc_array      xc_array
 element  1062:g1       1063:g1       1064:g1       1065:g1      
  r value     1.000e+15      10.0000       10.0000      1.000e+15



 subckt        xc_array      xc_array      xc_array      xc_array
 element  1066:g1       1067:g1       1068:g1       1069:g1      
  r value     1.000e+15      10.0000      1.000e+15      10.0000 



 subckt        xc_array      xc_array      xc_array      xc_array
 element  1070:g1       1071:g1       1072:g1       1073:g1      
  r value     1.000e+15      10.0000       10.0000       10.0000 



 subckt        xc_array      xc_array      xc_array      xc_array
 element  1074:g1       1075:g1       1076:g1       1077:g1      
  r value     1.000e+15     1.000e+15      10.0000      1.000e+15



 subckt        xc_array      xc_array      xc_array      xc_array
 element  1078:g1       1079:g1       1080:g1       1081:g1      
  r value     1.000e+15      10.0000       10.0000      1.000e+15



 subckt        xc_array      xc_array      xc_array      xc_array
 element  1082:g1       1083:g1       1084:g1       1085:g1      
  r value     1.000e+15      10.0000      1.000e+15      10.0000 



 subckt        xc_array      xc_array      xc_array      xc_array
 element  1086:g1       1087:g1       1088:g1       1089:g1      
  r value     1.000e+15      10.0000       10.0000       10.0000 



 subckt        xc_array      xc_array      xc_array      xc_array
 element  1090:g1       1091:g1       1092:g1       1093:g1      
  r value     1.000e+15     1.000e+15      10.0000      1.000e+15



 subckt        xc_array      xc_array      xc_array      xc_array
 element  1094:g1       1095:g1       1096:g1       1097:g1      
  r value     1.000e+15      10.0000       10.0000      1.000e+15



 subckt        xc_array      xc_array      xc_array      xc_array
 element  1098:g1       1099:g1       1100:g1       1101:g1      
  r value     1.000e+15      10.0000      1.000e+15      10.0000 



 subckt        xc_array      xc_array      xc_array      xc_array
 element  1102:g1       1103:g1       1104:g1       1105:g1      
  r value     1.000e+15      10.0000       10.0000       10.0000 



 subckt        xc_array      xc_array      xc_array      xc_array
 element  1106:g1       1107:g1       1108:g1       1109:g1      
  r value     1.000e+15     1.000e+15      10.0000      1.000e+15



 subckt        xc_array      xc_array      xc_array      xc_array
 element  1110:g1       1111:g1       1112:g1       1113:g1      
  r value     1.000e+15      10.0000       10.0000      1.000e+15



 subckt        xc_array      xc_array      xc_array      xc_array
 element  1114:g1       1115:g1       1116:g1       1117:g1      
  r value     1.000e+15      10.0000      1.000e+15      10.0000 



 subckt        xc_array      xc_array      xc_array      xc_array
 element  1118:g1       1119:g1       1120:g1       1121:g1      
  r value     1.000e+15      10.0000       10.0000       10.0000 



 subckt        xc_array      xc_array      xc_array      xc_array
 element  1122:g1       1123:g1       1124:g1       1125:g1      
  r value     1.000e+15     1.000e+15      10.0000      1.000e+15



 subckt        xc_array      xc_array      xc_array      xc_array
 element  1126:g1       1127:g1       1128:g1       1129:g1      
  r value     1.000e+15      10.0000       10.0000      1.000e+15



 subckt        xc_array      xc_array      xc_array      xc_array
 element  1130:g1       1131:g1       1132:g1       1133:g1      
  r value     1.000e+15      10.0000      1.000e+15      10.0000 



 subckt        xc_array      xc_array      xc_array      xc_array
 element  1134:g1       1135:g1       1136:g1       1137:g1      
  r value     1.000e+15      10.0000       10.0000       10.0000 



 subckt        xc_array      xc_array      xc_array      xc_array
 element  1138:g1       1139:g1       1140:g1       1141:g1      
  r value     1.000e+15     1.000e+15      10.0000      1.000e+15



 subckt        xc_array      xc_array      xc_array      xc_array
 element  1142:g1       1143:g1       1144:g1       1145:g1      
  r value     1.000e+15      10.0000       10.0000      1.000e+15



 subckt        xc_array      xc_array      xc_array      xc_array
 element  1146:g1       1147:g1       1148:g1       1149:g1      
  r value     1.000e+15      10.0000      1.000e+15      10.0000 



 subckt        xc_array      xc_array      xc_array      xc_array
 element  1150:g1       1151:g1       1152:g1       1153:g1      
  r value     1.000e+15      10.0000       10.0000       10.0000 



 subckt        xc_array      xc_array      xc_array      xc_array
 element  1154:g1       1155:g1       1156:g1       1157:g1      
  r value     1.000e+15     1.000e+15      10.0000      1.000e+15



 subckt        xc_array      xc_array      xc_array      xc_array
 element  1158:g1       1159:g1       1160:g1       1161:g1      
  r value     1.000e+15      10.0000       10.0000      1.000e+15



 subckt        xc_array      xc_array      xc_array      xc_array
 element  1162:g1       1163:g1       1164:g1       1165:g1      
  r value     1.000e+15      10.0000      1.000e+15      10.0000 



 subckt        xc_array      xc_array      xc_array      xc_array
 element  1166:g1       1167:g1       1168:g1       1169:g1      
  r value     1.000e+15      10.0000       10.0000       10.0000 



 subckt        xc_array      xc_array      xc_array      xc_array
 element  1170:g1       1171:g1       1172:g1       1173:g1      
  r value     1.000e+15     1.000e+15      10.0000      1.000e+15



 subckt        xc_array      xc_array      xc_array      xc_array
 element  1174:g1       1175:g1       1176:g1       1177:g1      
  r value     1.000e+15      10.0000       10.0000      1.000e+15



 subckt        xc_array      xc_array      xc_array      xc_array
 element  1178:g1       1179:g1       1180:g1       1181:g1      
  r value     1.000e+15      10.0000      1.000e+15      10.0000 



 subckt        xc_array      xc_array      xc_array      xc_array
 element  1182:g1       1183:g1       1184:g1       1185:g1      
  r value     1.000e+15      10.0000       10.0000       10.0000 



 subckt        xc_array      xc_array      xc_array      xc_array
 element  1186:g1       1187:g1       1188:g1       1189:g1      
  r value     1.000e+15     1.000e+15     1.000e+15      10.0000 



 subckt        xc_array      xc_array      xc_array      xc_array
 element  1190:g1       1191:g1       1192:g1       1193:g1      
  r value      10.0000      1.000e+15     1.000e+15      10.0000 



 subckt        xc_array      xc_array      xc_array      xc_array
 element  1194:g1       1195:g1       1196:g1       1197:g1      
  r value      10.0000      1.000e+15      10.0000       10.0000 



 subckt        xc_array      xc_array      xc_array      xc_array
 element  1198:g1       1199:g1       1200:g1       1201:g1      
  r value     1.000e+15     1.000e+15     1.000e+15      10.0000 



 subckt        xc_array      xc_array
 element  1202:g1       1203:g1      
  r value     1.000e+15      10.0000 




 **** voltage-controlled voltage sources


 subckt                      xcmp    
 element     0:evcm1       1:evcvs   
  volts       500.0000m       0.     
  current      -1.0010p       0.     




          ***** job concluded
 ******  
 

 ****** job statistics summary tnom=  25.000 temp=  60.000 ******

  ******  Circuit Statistics  ******
  # nodes       =     612 # elements   =    4040
  # resistors   =    1981 # capacitors =    1127 # inductors   =       0
  # mutual_inds =       0 # vccs       =     918 # vcvs        =       2
  # cccs        =       0 # ccvs       =       0 # volt_srcs   =      12
  # curr_srcs   =       0 # diodes     =       0 # bjts        =       0
  # jfets       =       0 # mosfets    =       0 # U elements  =       0
  # T elements  =       0 # W elements =       0 # B elements  =       0
  # S elements  =       0 # P elements =       0 # va device   =       0
  # vector_srcs =       0 # N elements =       0


  ******  Runtime Statistics (seconds)  ******

  analysis           time    # points   tot. iter  conv.iter
  op point           0.01           1          12
  transient       1304.76         101     3204972     1308010 rev=     67129
  readin             0.00
  errchk             0.03
  setup              0.00
  output             0.00


           peak memory used        327.42 megabytes
           total cpu time         1304.80 seconds
           total elapsed time     1312.36 seconds
           job started at     13:30:41 11/01/2019
           job ended   at     16:07:12 11/01/2019



>info:         ***** hspice job concluded
 lic: Release hspice token(s) 
 lic: total license checkout elapse time:        0.29(s)
