****** HSPICE -- O-2018.09 linux64 (Aug 26 2018) ******
 Input File: bhv2_z3_10b_cpx100m.sp
 lic:
 lic: FLEXlm: SDK_11.6.9.6
 lic: USER:   ychuang              HOSTNAME: adc
 lic: HOSTID: "b4969141dd1f"       PID:      57354
 lic: Using FLEXlm license file:
 lic: 26585@lsnctu
 lic: Checkout 1 hspice
 lic: License/Maintenance for hspice will expire on 14-may-2022/2018.09
 lic: 183(in_use)/190(total) FLOATING license(s) on SERVER 26585@lsnctu
 lic:
 init: begin read circuit files, cpu clock= 8.90E-01
       option search = /usr/cad/synopsys/hspice/cur/hspice/O-2018.09/hs
                         pice/parts/ad
       option runlvl
       option runlvl =     3.00
       option method = gear
       option lvltim =     2.00
       option vntol =    1.000E-06
       option reltol =    1.000E-06
       option rmin =    1.000E-15
       option delmax =    5.000E-10
       option post
       option probe
       option interp
 init: end read circuit files, cpu clock= 9.00E-01 peak memory=     316 mb
 init: begin check errors, cpu clock= 9.00E-01
  **warning**  No DC path to ground from node        5:
 init: end check errors, cpu clock= 9.40E-01 peak memory=     322 mb
 init: begin setup matrix, pivot=     0 cpu clock= 9.40E-01
       establish matrix -- done, cpu clock= 9.40E-01 peak memory=     322 mb
       re-order matrix -- done, cpu clock= 9.40E-01 peak memory=     322 mb
 init: end setup matrix, cpu clock= 9.50E-01 peak memory=     323 mb
 dcop: begin dcop, cpu clock= 9.50E-01
 dcop: end dcop, cpu clock= 9.60E-01 peak memory=     323 mb tot_iter=      16
 output: bhv2_z3_10b_cpx100m.tr0
 sweep: tran tran0    begin, stop_t=  1.01E-03 #sweeps=**** cpu clock= 9.60E-01
 tran: time= 1.0102E-04 tot_iter= 1826832 conv_iter=  572511 cpu clock= 1.30E+03
 tran: time= 2.0203E-04 tot_iter= 3657509 conv_iter= 1145392 cpu clock= 2.59E+03
 tran: time= 3.0305E-04 tot_iter= 5487677 conv_iter= 1719299 cpu clock= 3.90E+03
 tran: time= 4.0406E-04 tot_iter= 7317776 conv_iter= 2293636 cpu clock= 5.22E+03
 tran: time= 5.0508E-04 tot_iter= 9136742 conv_iter= 2866023 cpu clock= 6.51E+03
 tran: time= 6.0609E-04 tot_iter=10959121 conv_iter= 3437151 cpu clock= 7.87E+03
 tran: time= 7.0711E-04 tot_iter=12785489 conv_iter= 4011556 cpu clock= 9.22E+03
 tran: time= 8.0813E-04 tot_iter=14602043 conv_iter= 4581143 cpu clock= 1.05E+04
 tran: time= 9.0914E-04 tot_iter=16423313 conv_iter= 5150203 cpu clock= 1.15E+04
 sweep: tran tran0    end, cpu clock= 1.21E+04 peak memory=     327 mb
>info:         ***** hspice job concluded
 lic: Release hspice token(s)
