****** HSPICE -- O-2018.09 linux64 (Aug 26 2018) ******
 Input File: bhv2_10b_cpx100m.sp
 lic:
 lic: FLEXlm: SDK_11.6.9.6
 lic: USER:   ychuang              HOSTNAME: adc
 lic: HOSTID: "b4969141dd1f"       PID:      57339
 lic: Using FLEXlm license file:
 lic: 26585@lsnctu
 lic: Checkout 1 hspice
 lic: License/Maintenance for hspice will expire on 14-may-2022/2018.09
 lic: 183(in_use)/190(total) FLOATING license(s) on SERVER 26585@lsnctu
 lic:
 init: begin read circuit files, cpu clock= 9.00E-01
       option search = /usr/cad/synopsys/hspice/cur/hspice/O-2018.09/hs
                         pice/parts/ad
       option runlvl
       option runlvl =     3.00
       option method = gear
       option lvltim =     2.00
       option vntol =    1.000E-06
       option reltol =    1.000E-06
       option rmin =    1.000E-15
       option delmax =    5.000E-10
       option post
       option probe
       option interp
 init: end read circuit files, cpu clock= 9.10E-01 peak memory=     316 mb
 init: begin check errors, cpu clock= 9.10E-01
  **warning**  No DC path to ground from node        5:
 init: end check errors, cpu clock= 9.50E-01 peak memory=     322 mb
 init: begin setup matrix, pivot=     0 cpu clock= 9.50E-01
       establish matrix -- done, cpu clock= 9.60E-01 peak memory=     322 mb
       re-order matrix -- done, cpu clock= 9.60E-01 peak memory=     322 mb
 init: end setup matrix, cpu clock= 9.60E-01 peak memory=     323 mb
 dcop: begin dcop, cpu clock= 9.60E-01
 dcop: end dcop, cpu clock= 9.80E-01 peak memory=     323 mb tot_iter=      16
 output: bhv2_10b_cpx100m.tr0
 sweep: tran tran0    begin, stop_t=  1.01E-03 #sweeps=**** cpu clock= 9.80E-01
 tran: time= 1.0102E-04 tot_iter= 1824850 conv_iter=  572175 cpu clock= 1.30E+03
 tran: time= 2.0203E-04 tot_iter= 3653633 conv_iter= 1146535 cpu clock= 2.56E+03
 tran: time= 3.0305E-04 tot_iter= 5485818 conv_iter= 1721596 cpu clock= 3.83E+03
 tran: time= 4.0406E-04 tot_iter= 7315905 conv_iter= 2295643 cpu clock= 5.13E+03
 tran: time= 5.0508E-04 tot_iter= 9138813 conv_iter= 2869751 cpu clock= 6.47E+03
 tran: time= 6.0609E-04 tot_iter=10961646 conv_iter= 3441754 cpu clock= 7.80E+03
 tran: time= 7.0711E-04 tot_iter=12791906 conv_iter= 4015884 cpu clock= 9.09E+03
 tran: time= 8.0813E-04 tot_iter=14615585 conv_iter= 4588932 cpu clock= 1.04E+04
 tran: time= 9.0914E-04 tot_iter=16447561 conv_iter= 5162407 cpu clock= 1.14E+04
 sweep: tran tran0    end, cpu clock= 1.20E+04 peak memory=     327 mb
>info:         ***** hspice job concluded
 lic: Release hspice token(s)
