****** HSPICE -- O-2018.09 linux64 (Aug 26 2018) ******
 Input File: bhv2_z6_10b_cpx100m.sp
 lic:
 lic: FLEXlm: SDK_11.6.9.6
 lic: USER:   ychuang              HOSTNAME: adc
 lic: HOSTID: "b4969141dd1f"       PID:      57374
 lic: Using FLEXlm license file:
 lic: 26585@lsnctu
 lic: Checkout 1 hspice
 lic: License/Maintenance for hspice will expire on 14-may-2022/2018.09
 lic: 183(in_use)/190(total) FLOATING license(s) on SERVER 26585@lsnctu
 lic:
 init: begin read circuit files, cpu clock= 9.60E-01
       option search = /usr/cad/synopsys/hspice/cur/hspice/O-2018.09/hs
                         pice/parts/ad
       option runlvl
       option runlvl =     3.00
       option method = gear
       option lvltim =     2.00
       option vntol =    1.000E-06
       option reltol =    1.000E-06
       option rmin =    1.000E-15
       option delmax =    5.000E-10
       option post
       option probe
       option interp
 init: end read circuit files, cpu clock= 9.80E-01 peak memory=     321 mb
 init: begin check errors, cpu clock= 9.80E-01
  **warning**  No DC path to ground from node        5:
 init: end check errors, cpu clock= 1.03E+00 peak memory=     327 mb
 init: begin setup matrix, pivot=     0 cpu clock= 1.03E+00
       establish matrix -- done, cpu clock= 1.04E+00 peak memory=     327 mb
       re-order matrix -- done, cpu clock= 1.04E+00 peak memory=     327 mb
 init: end setup matrix, cpu clock= 1.06E+00 peak memory=     328 mb
 dcop: begin dcop, cpu clock= 1.06E+00
 dcop: end dcop, cpu clock= 1.10E+00 peak memory=     328 mb tot_iter=      16
 output: bhv2_z6_10b_cpx100m.tr0
 sweep: tran tran0    begin, stop_t=  1.01E-03 #sweeps=**** cpu clock= 1.10E+00
 tran: time= 1.0102E-04 tot_iter= 1819038 conv_iter=  571379 cpu clock= 1.36E+03
 tran: time= 2.0203E-04 tot_iter= 3648517 conv_iter= 1144683 cpu clock= 2.65E+03
 tran: time= 3.0305E-04 tot_iter= 5475273 conv_iter= 1718757 cpu clock= 3.95E+03
 tran: time= 4.0406E-04 tot_iter= 7306299 conv_iter= 2293094 cpu clock= 5.23E+03
 tran: time= 5.0508E-04 tot_iter= 9132986 conv_iter= 2867721 cpu clock= 6.55E+03
 tran: time= 6.0609E-04 tot_iter=10956107 conv_iter= 3439895 cpu clock= 7.87E+03
 tran: time= 7.0711E-04 tot_iter=12779913 conv_iter= 4012912 cpu clock= 9.22E+03
 tran: time= 8.0813E-04 tot_iter=14605148 conv_iter= 4583924 cpu clock= 1.05E+04
 tran: time= 9.0914E-04 tot_iter=16436872 conv_iter= 5155309 cpu clock= 1.15E+04
 sweep: tran tran0    end, cpu clock= 1.22E+04 peak memory=     327 mb
>info:         ***** hspice job concluded
 lic: Release hspice token(s)
