****** HSPICE -- O-2018.09 linux64 (Aug 26 2018) ******
 Input File: bhv2_z2_10b.sp
 lic:
 lic: FLEXlm: SDK_11.6.9.6
 lic: USER:   ychuang              HOSTNAME: adc
 lic: HOSTID: "b026281535a3"       PID:      114902
 lic: Using FLEXlm license file:
 lic: 26585@lsnctu
 lic: Checkout 1 hspice
 lic: License/Maintenance for hspice will expire on 14-may-2022/2018.09
 lic: 161(in_use)/190(total) FLOATING license(s) on SERVER 26585@lsnctu
 lic:
 init: begin read circuit files, cpu clock= 1.05E+00
       option search = /usr/cad/synopsys/hspice/cur/hspice/O-2018.09/hs
                         pice/parts/ad
       option runlvl
       option runlvl =     3.00
       option method = gear
       option lvltim =     2.00
       option vntol =    1.000E-06
       option reltol =    1.000E-06
       option rmin =    1.000E-15
       option delmax =    5.000E-10
       option post
       option probe
       option interp
 init: end read circuit files, cpu clock= 1.07E+00 peak memory=     321 mb
 init: begin check errors, cpu clock= 1.07E+00
  **warning**  No DC path to ground from node        5:
 init: end check errors, cpu clock= 1.18E+00 peak memory=     327 mb
 init: begin setup matrix, pivot=     0 cpu clock= 1.18E+00
       establish matrix -- done, cpu clock= 1.19E+00 peak memory=     327 mb
       re-order matrix -- done, cpu clock= 1.19E+00 peak memory=     327 mb
 init: end setup matrix, cpu clock= 1.21E+00 peak memory=     328 mb
 dcop: begin dcop, cpu clock= 1.22E+00
 dcop: end dcop, cpu clock= 1.26E+00 peak memory=     328 mb tot_iter=      16
 output: bhv2_z2_10b.tr0
 sweep: tran tran0    begin, stop_t=  1.01E-03 #sweeps=**** cpu clock= 1.26E+00
 tran: time= 1.0102E-04 tot_iter= 1825186 conv_iter=  571825 cpu clock= 1.86E+03
 tran: time= 2.0203E-04 tot_iter= 3656198 conv_iter= 1145224 cpu clock= 3.77E+03
 tran: time= 3.0305E-04 tot_iter= 5483645 conv_iter= 1720423 cpu clock= 5.51E+03
 tran: time= 4.0406E-04 tot_iter= 7311611 conv_iter= 2295511 cpu clock= 7.24E+03
 tran: time= 5.0508E-04 tot_iter= 9137968 conv_iter= 2869075 cpu clock= 9.14E+03
 tran: time= 6.0609E-04 tot_iter=10964513 conv_iter= 3441673 cpu clock= 1.11E+04
 tran: time= 7.0711E-04 tot_iter=12781943 conv_iter= 4014213 cpu clock= 1.32E+04
 tran: time= 8.0813E-04 tot_iter=14603705 conv_iter= 4584011 cpu clock= 1.51E+04
 tran: time= 9.0914E-04 tot_iter=16437386 conv_iter= 5155503 cpu clock= 1.69E+04
 sweep: tran tran0    end, cpu clock= 1.82E+04 peak memory=     327 mb
>info:         ***** hspice job concluded
 lic: Release hspice token(s)
