****** HSPICE -- O-2018.09 linux64 (Aug 26 2018) ******
 Input File: bhv2_z5_10b_cpx100m.sp
 lic:
 lic: FLEXlm: SDK_11.6.9.6
 lic: USER:   ychuang              HOSTNAME: adc
 lic: HOSTID: "b4969141dd1f"       PID:      57368
 lic: Using FLEXlm license file:
 lic: 26585@lsnctu
 lic: Checkout 1 hspice
 lic: License/Maintenance for hspice will expire on 14-may-2022/2018.09
 lic: 183(in_use)/190(total) FLOATING license(s) on SERVER 26585@lsnctu
 lic:
 init: begin read circuit files, cpu clock= 8.40E-01
       option search = /usr/cad/synopsys/hspice/cur/hspice/O-2018.09/hs
                         pice/parts/ad
       option runlvl
       option runlvl =     3.00
       option method = gear
       option lvltim =     2.00
       option vntol =    1.000E-06
       option reltol =    1.000E-06
       option rmin =    1.000E-15
       option delmax =    5.000E-10
       option post
       option probe
       option interp
 init: end read circuit files, cpu clock= 8.40E-01 peak memory=     316 mb
 init: begin check errors, cpu clock= 8.40E-01
  **warning**  No DC path to ground from node        5:
 init: end check errors, cpu clock= 8.70E-01 peak memory=     322 mb
 init: begin setup matrix, pivot=     0 cpu clock= 8.70E-01
       establish matrix -- done, cpu clock= 8.70E-01 peak memory=     322 mb
       re-order matrix -- done, cpu clock= 8.80E-01 peak memory=     322 mb
 init: end setup matrix, cpu clock= 8.80E-01 peak memory=     323 mb
 dcop: begin dcop, cpu clock= 8.80E-01
 dcop: end dcop, cpu clock= 9.00E-01 peak memory=     323 mb tot_iter=      16
 output: bhv2_z5_10b_cpx100m.tr0
 sweep: tran tran0    begin, stop_t=  1.01E-03 #sweeps=**** cpu clock= 9.00E-01
 tran: time= 1.0102E-04 tot_iter= 1826519 conv_iter=  572563 cpu clock= 1.24E+03
 tran: time= 2.0203E-04 tot_iter= 3649245 conv_iter= 1145536 cpu clock= 2.42E+03
 tran: time= 3.0305E-04 tot_iter= 5479721 conv_iter= 1720038 cpu clock= 3.68E+03
 tran: time= 4.0406E-04 tot_iter= 7311609 conv_iter= 2293848 cpu clock= 4.90E+03
 tran: time= 5.0508E-04 tot_iter= 9134835 conv_iter= 2867297 cpu clock= 6.09E+03
 tran: time= 6.0609E-04 tot_iter=10955465 conv_iter= 3438403 cpu clock= 7.39E+03
 tran: time= 7.0711E-04 tot_iter=12778294 conv_iter= 4010603 cpu clock= 8.65E+03
 tran: time= 8.0813E-04 tot_iter=14604133 conv_iter= 4583760 cpu clock= 9.94E+03
 tran: time= 9.0914E-04 tot_iter=16433238 conv_iter= 5155638 cpu clock= 1.11E+04
 sweep: tran tran0    end, cpu clock= 1.18E+04 peak memory=     327 mb
>info:         ***** hspice job concluded
 lic: Release hspice token(s)
