****** HSPICE -- O-2018.09 linux64 (Aug 26 2018) ******
 Input File: bhv2_z5_noCp.sp
 lic:
 lic: FLEXlm: SDK_11.6.9.6
 lic: USER:   ychuang              HOSTNAME: adc
 lic: HOSTID: "b026281535a3"       PID:      114553
 lic: Using FLEXlm license file:
 lic: 26585@lsnctu
 lic: Checkout 1 hspice
 lic: License/Maintenance for hspice will expire on 14-may-2022/2018.09
 lic: 158(in_use)/190(total) FLOATING license(s) on SERVER 26585@lsnctu
 lic:
 init: begin read circuit files, cpu clock= 1.02E+00
       option search = /usr/cad/synopsys/hspice/cur/hspice/O-2018.09/hs
                         pice/parts/ad
       option runlvl
       option runlvl =     3.00
       option method = gear
       option lvltim =     2.00
       option vntol =    1.000E-06
       option reltol =    1.000E-06
       option rmin =    1.000E-15
       option delmax =    5.000E-10
       option post
       option probe
       option interp
 init: end read circuit files, cpu clock= 1.03E+00 peak memory=     321 mb
 init: begin check errors, cpu clock= 1.03E+00
  **warning**  No DC path to ground from node        5:
 init: end check errors, cpu clock= 1.16E+00 peak memory=     327 mb
 init: begin setup matrix, pivot=     0 cpu clock= 1.16E+00
       establish matrix -- done, cpu clock= 1.16E+00 peak memory=     327 mb
       re-order matrix -- done, cpu clock= 1.17E+00 peak memory=     327 mb
 init: end setup matrix, cpu clock= 1.19E+00 peak memory=     328 mb
 dcop: begin dcop, cpu clock= 1.20E+00
 dcop: end dcop, cpu clock= 1.24E+00 peak memory=     328 mb tot_iter=      16
 output: bhv2_z5_noCp.tr0
 sweep: tran tran0    begin, stop_t=  1.01E-03 #sweeps=**** cpu clock= 1.25E+00
