****** HSPICE -- O-2018.09 linux64 (Aug 26 2018) ******
 Input File: bhv2_10b_noCp.sp
 lic:
 lic: FLEXlm: SDK_11.6.9.6
 lic: USER:   ychuang              HOSTNAME: adc
 lic: HOSTID: "b026281535a3"       PID:      115043
 lic: Using FLEXlm license file:
 lic: 26585@lsnctu
 lic: Checkout 1 hspice
 lic: License/Maintenance for hspice will expire on 14-may-2022/2018.09
 lic: 169(in_use)/190(total) FLOATING license(s) on SERVER 26585@lsnctu
 lic:
 init: begin read circuit files, cpu clock= 1.24E+00
       option search = /usr/cad/synopsys/hspice/cur/hspice/O-2018.09/hs
                         pice/parts/ad
       option runlvl
       option runlvl =     3.00
       option method = gear
       option lvltim =     2.00
       option vntol =    1.000E-06
       option reltol =    1.000E-06
       option rmin =    1.000E-15
       option delmax =    5.000E-10
       option post
       option probe
       option interp
 init: end read circuit files, cpu clock= 1.25E+00 peak memory=     321 mb
 init: begin check errors, cpu clock= 1.25E+00
  **warning**  No DC path to ground from node        5:
 init: end check errors, cpu clock= 1.39E+00 peak memory=     327 mb
 init: begin setup matrix, pivot=     0 cpu clock= 1.39E+00
       establish matrix -- done, cpu clock= 1.40E+00 peak memory=     327 mb
       re-order matrix -- done, cpu clock= 1.41E+00 peak memory=     327 mb
 init: end setup matrix, cpu clock= 1.46E+00 peak memory=     328 mb
 dcop: begin dcop, cpu clock= 1.49E+00
 dcop: end dcop, cpu clock= 1.56E+00 peak memory=     329 mb tot_iter=      16
 output: bhv2_10b_noCp.tr0
 sweep: tran tran0    begin, stop_t=  1.01E-03 #sweeps=**** cpu clock= 1.56E+00
 tran: time= 1.0102E-04 tot_iter= 1821406 conv_iter=  572948 cpu clock= 1.68E+03
 tran: time= 2.0203E-04 tot_iter= 3655841 conv_iter= 1147715 cpu clock= 3.29E+03
 tran: time= 3.0305E-04 tot_iter= 5481557 conv_iter= 1722078 cpu clock= 4.92E+03
 tran: time= 4.0406E-04 tot_iter= 7315900 conv_iter= 2297207 cpu clock= 6.69E+03
 tran: time= 5.0508E-04 tot_iter= 9141525 conv_iter= 2871360 cpu clock= 8.39E+03
 tran: time= 6.0609E-04 tot_iter=10961527 conv_iter= 3443109 cpu clock= 1.06E+04
 tran: time= 7.0711E-04 tot_iter=12788945 conv_iter= 4015926 cpu clock= 1.27E+04
 tran: time= 8.0813E-04 tot_iter=14608443 conv_iter= 4586077 cpu clock= 1.48E+04
 tran: time= 9.0914E-04 tot_iter=16434775 conv_iter= 5156545 cpu clock= 1.66E+04
 sweep: tran tran0    end, cpu clock= 1.80E+04 peak memory=     327 mb
>info:         ***** hspice job concluded
 lic: Release hspice token(s)
