****** HSPICE -- O-2018.09 linux64 (Aug 26 2018) ******
 Input File: bhv2_z2_10b_cpx100m.sp
 lic:
 lic: FLEXlm: SDK_11.6.9.6
 lic: USER:   ychuang              HOSTNAME: adc
 lic: HOSTID: "b4969141dd1f"       PID:      57366
 lic: Using FLEXlm license file:
 lic: 26585@lsnctu
 lic: Checkout 1 hspice
 lic: License/Maintenance for hspice will expire on 14-may-2022/2018.09
 lic: 183(in_use)/190(total) FLOATING license(s) on SERVER 26585@lsnctu
 lic:
 init: begin read circuit files, cpu clock= 1.00E+00
       option search = /usr/cad/synopsys/hspice/cur/hspice/O-2018.09/hs
                         pice/parts/ad
       option runlvl
       option runlvl =     3.00
       option method = gear
       option lvltim =     2.00
       option vntol =    1.000E-06
       option reltol =    1.000E-06
       option rmin =    1.000E-15
       option delmax =    5.000E-10
       option post
       option probe
       option interp
 init: end read circuit files, cpu clock= 1.01E+00 peak memory=     321 mb
 init: begin check errors, cpu clock= 1.01E+00
  **warning**  No DC path to ground from node        5:
 init: end check errors, cpu clock= 1.10E+00 peak memory=     328 mb
 init: begin setup matrix, pivot=     0 cpu clock= 1.10E+00
       establish matrix -- done, cpu clock= 1.10E+00 peak memory=     328 mb
       re-order matrix -- done, cpu clock= 1.11E+00 peak memory=     328 mb
 init: end setup matrix, cpu clock= 1.12E+00 peak memory=     329 mb
 dcop: begin dcop, cpu clock= 1.13E+00
 dcop: end dcop, cpu clock= 1.17E+00 peak memory=     329 mb tot_iter=      16
 output: bhv2_z2_10b_cpx100m.tr0
 sweep: tran tran0    begin, stop_t=  1.01E-03 #sweeps=**** cpu clock= 1.17E+00
 tran: time= 1.0102E-04 tot_iter= 1826269 conv_iter=  572548 cpu clock= 1.31E+03
 tran: time= 2.0203E-04 tot_iter= 3664982 conv_iter= 1146990 cpu clock= 2.56E+03
 tran: time= 3.0305E-04 tot_iter= 5489524 conv_iter= 1721619 cpu clock= 3.77E+03
 tran: time= 4.0406E-04 tot_iter= 7316751 conv_iter= 2295309 cpu clock= 4.99E+03
 tran: time= 5.0508E-04 tot_iter= 9129641 conv_iter= 2867322 cpu clock= 6.25E+03
 tran: time= 6.0609E-04 tot_iter=10948117 conv_iter= 3439758 cpu clock= 7.55E+03
 tran: time= 7.0711E-04 tot_iter=12775481 conv_iter= 4014156 cpu clock= 8.85E+03
 tran: time= 8.0813E-04 tot_iter=14606321 conv_iter= 4587556 cpu clock= 1.01E+04
 tran: time= 9.0914E-04 tot_iter=16429181 conv_iter= 5159414 cpu clock= 1.13E+04
 sweep: tran tran0    end, cpu clock= 1.19E+04 peak memory=     327 mb
>info:         ***** hspice job concluded
 lic: Release hspice token(s)
