****** HSPICE -- O-2018.09 linux64 (Aug 26 2018) ******
 Input File: bhv4_z4_noCp.sp
 lic:
 lic: FLEXlm: SDK_11.6.9.6
 lic: USER:   ychuang              HOSTNAME: adc
 lic: HOSTID: "b026281535a3"       PID:      122016
 lic: Licensed number of users already reached. Feature:       hspice License path:  26585@lsnctu: F
 lic: MAX # of tokens reached!
 lic: 'setenv META_QUEUE 1' is ON
 lic: hspice waiting for license
 lic: STOP job in queue: CNTL C or/and kill -9 122016
 lic: Try to reconnect to license server: 1/10
 lic: Reconnect to license server is done
 lic: Using FLEXlm license file:
 lic: 26585@lsnctu
 lic: Checkout 1 hspice
 lic: License/Maintenance for hspice will expire on 14-may-2022/2018.09
 lic: 352(in_use)/380(total) FLOATING license(s) on SERVER 26585@lsnctu
 lic:
 init: begin read circuit files, cpu clock= 2.67E+00
       option search = /usr/cad/synopsys/hspice/cur/hspice/O-2018.09/hs
                         pice/parts/ad
       option runlvl
       option runlvl =     3.00
       option method = gear
       option lvltim =     2.00
       option vntol =    1.000E-06
       option reltol =    1.000E-06
       option rmin =    1.000E-15
       option delmax =    5.000E-10
       option post
       option probe
       option interp
 init: end read circuit files, cpu clock= 2.68E+00 peak memory=     316 mb
 init: begin check errors, cpu clock= 2.68E+00
 init: end check errors, cpu clock= 2.94E+00 peak memory=     323 mb
 init: begin setup matrix, pivot=     0 cpu clock= 2.94E+00
       establish matrix -- done, cpu clock= 2.95E+00 peak memory=     323 mb
       re-order matrix -- done, cpu clock= 2.96E+00 peak memory=     323 mb
 init: end setup matrix, cpu clock= 2.98E+00 peak memory=     324 mb
 dcop: begin dcop, cpu clock= 3.03E+00
 dcop: end dcop, cpu clock= 3.30E+00 peak memory=     324 mb tot_iter=      23
 output: bhv4_z4_noCp.tr0
 sweep: tran tran0    begin, stop_t=   lic: Reconnect to license server is done
 lic: Reconnect to license server is done
 tran: time= 1.0102E-04 tot_iter= 1805005 conv_iter=  566836 cpu clock= 1.64E+04
 tran: time= 2.0203E-04 tot_iter= 3618277 conv_iter= 1135296 cpu clock= 2.85E+04
 tran: time= 3.0305E-04 tot_iter= 5433076 conv_iter= 1704149 cpu clock= 3.03E+04
 tran: time= 4.0406E-04 tot_iter= 7249411 conv_iter= 2272161 cpu clock= 3.20E+04
 tran: time= 5.0508E-04 tot_iter= 9063859 conv_iter= 2840686 cpu clock= 3.37E+04
 tran: time= 6.0609E-04 tot_iter=10869085 conv_iter= 3406582 cpu clock= 3.55E+04
 tran: time= 7.0711E-04 tot_iter=12674333 conv_iter= 3973515 cpu clock= 3.72E+04
 tran: time= 8.0813E-04 tot_iter=14487733 conv_iter= 4541723 cpu clock= 3.90E+04
 tran: time= 9.0914E-04 tot_iter=16317036 conv_iter= 5111322 cpu clock= 4.09E+04
 sweep: tran tran0    end, cpu clock= 4.28E+04 peak memory=     328 mb
>info:         ***** hspice job concluded
 lic: Release hspice token(s)
733 conv_iter= 4541723 cpu clock= 2.54E+04
 tran: time= 9.0914E-04 tot_iter=16317036 conv_iter= 5111322 cpu clock= 2.70E+04
 sweep: tran tran0    end, cpu clock= 2.87E+04 peak memory=     328 mb
>info:         ***** hspice job concluded
 lic: Release hspice token(s)
