****** HSPICE -- O-2018.09 linux64 (Aug 26 2018) ******
 Input File: bhv4_z4.sp
 lic:
 lic: FLEXlm: SDK_11.6.9.6
 lic: USER:   ychuang              HOSTNAME: adc
 lic: HOSTID: "b026281535a3"       PID:      121915
 lic: Licensed number of users already reached. Feature:       hspice License path:  26585@lsnctu: F
 lic: MAX # of tokens reached!
 lic: 'setenv META_QUEUE 1' is ON
 lic: hspice waiting for license
 lic: STOP job in queue: CNTL C or/and kill -9 121915
 lic: Try to reconnect to license server: 1/10
 lic: Reconnect to license server is done
 lic: Using FLEXlm license file:
 lic: 26585@lsnctu
 lic: Checkout 1 hspice
 lic: License/Maintenance for hspice will expire on 14-may-2022/2018.09
 lic: 352(in_use)/380(total) FLOATING license(s) on SERVER 26585@lsnctu
 lic:
 init: begin read circuit files, cpu clock= 2.92E+00
       option search = /usr/cad/synopsys/hspice/cur/hspice/O-2018.09/hs
                         pice/parts/ad
       option runlvl
       option runlvl =     3.00
       option method = gear
       option lvltim =     2.00
       option vntol =    1.000E-06
       option reltol =    1.000E-06
       option rmin =    1.000E-15
       option delmax =    5.000E-10
       option post
       option probe
       option interp
 init: end read circuit files, cpu clock= 2.93E+00 peak memory=     316 mb
 init: begin check errors, cpu clock= 2.93E+00
 init: end check errors, cpu clock= 3.21E+00 peak memory=     323 mb
 init: begin setup matrix, pivot=     0 cpu clock= 3.21E+00
       establish matrix -- done, cpu clock= 3.22E+00 peak memory=     323 mb
       re-order matrix -- done, cpu clock= 3.23E+00 peak memory=     323 mb
 init: end setup matrix, cpu clock= 3.26E+00 peak memory=     324 mb
 dcop: begin dcop, cpu clock= 3.29E+00
 dcop: end dcop, cpu clock= 3.57E+00 peak memory=     324 mb tot_iter=      23
 output: bhv4_z4.tr0
 sweep: tran tran0    begin, stop_t=  1.01E-03 #sweeps=**** cpu clock= 3.58E+00
 lic: Try to reconnect to license  lic: Reconne lic: Reconnect to license server is done
 lic: Reconnect to license server is done
 tran: time= 1.0102E-04 tot_iter= 1805988 conv_iter=  567382 cpu clock= 2.85 tran tran: time= 2.0203E-04 tot_iter= 3627169 conv_iter= 1136718 cpu clock= 1.15 tran: time= 3.0305E-04 tot_iter= 5446219 conv_iter= 1705794 cpu clock= 3.68E+04
 tran: time= 4.0406E-04 tot_iter= 7264893 conv_iter= 2274525 cpu clock= 4.58E+04
 tran: time= 5.0508E-04 tot_iter= 9073046 conv_iter= 2842856 cpu clock= 5.07E+04
 tran: time= 6.0609E-04 tot_iter=10884851 conv_iter= 3410220 cpu clock= 5.57E+04
 tran tran: time= 7.0711E-04 tot_iter=12692397 conv_iter= 3976488 cpu clock= 5.26 tran tran: time= 8.0813E-04 tot_iter=14517847 conv_iter= 4545787 cpu clock= 5.74E+04
 tran: time= 9.0914E-04 tot_iter=16339971 conv_iter= 5114120 cpu clock= 6.06E+04
 sweep: tran tran0    end, cpu clock= 6.33E+04 peak memory=     328 mb
>info:         ***** hspice job concluded
 lic: Release hspice token(s)
