****** HSPICE -- O-2018.09 linux64 (Aug 26 2018) ******
 Input File: bhv4_z6.sp
 lic:
 lic: FLEXlm: SDK_11.6.9.6
 lic: USER:   ychuang              HOSTNAME: adc
 lic: HOSTID: "b026281535a3"       PID:      121923
 lic: Licensed number of users already reached. Feature:       hspice License path:  26585@lsnctu: F
 lic: MAX # of tokens reached!
 lic: 'setenv META_QUEUE 1' is ON
 lic: hspice waiting for license
 lic: STOP job in queue: CNTL C or/and kill -9 121923
 lic: Try to reconnect to license server: 1/10
 lic: Reconnect to license server is done
 lic: Using FLEXlm license file:
 lic: 26585@lsnctu
 lic: Checkout 1 hspice
 lic: License/Maintenance for hspice will expire on 14-may-2022/2018.09
 lic: 352(in_use)/380(total) FLOATING license(s) on SERVER 26585@lsnctu
 lic:
 init: begin read circuit files, cpu clock= 2.91E+00
       option search = /usr/cad/synopsys/hspice/cur/hspice/O-2018.09/hs
                         pice/parts/ad
       option runlvl
       option runlvl =     3.00
       option method = gear
       option lvltim =     2.00
       option vntol =    1.000E-06
       option reltol =    1.000E-06
       option rmin =    1.000E-15
       option delmax =    5.000E-10
       option post
       option probe
       option interp
 init: end read circuit files, cpu clock= 2.91E+00 peak memory=     316 mb
 init: begin check errors, cpu clock= 2.91E+00
 init: end check errors, cpu clock= 3.17E+00 peak memory=     323 mb
 init: begin setup matrix, pivot=     0 cpu clock= 3.17E+00
       establish matrix -- done, cpu clock= 3.18E+00 peak memory=     323 mb
       re-order matrix -- done, cpu clock= 3.20E+00 peak memory=     323 mb
 init: end setup matrix, cpu clock= 3.22E+00 peak memory=     324 mb
 dcop: begin dcop, cpu clock= 3.26E+00
 dcop: end dcop, cpu clock= 3.52E+00 peak memory=     324 mb tot_iter=      23
 output: bhv4_z6.tr0
 sweep: tran tran0    begin, stop_t=  1.01E-03 #sweeps=**** cpu clock= 3.52E+00
 lic: Try to reconnect to license server: 1/10
 lic: Reconnect to license server is done
 lic: Try to reconnect to license server: 1/10
 lic: Reconnect to license server is done
 lic: Try to reconnect to license server: 1/10
 lic: Reconnect to license server is done
 lic: Reconnect to li tran: time= 3.0305E- tran: time= 1.0102E-04 tot_iter= 1811484 conv_iter=  566685 cpu clock= 1.89E+04
 tran: time= 2.0203E-04 tot_iter= 3636373 conv_iter= 1137227 cpu clock= 3.69E+04
 tran: time= 3.0305E-04 tot_iter= 5451473 conv_iter= 1705080 cpu clock= 4.90E+04
 tran: time= 4.0406E-04 tot_iter= 7265626 conv_iter= 2274264 cpu clock= 5.11E+04
 tran: time= 5.0508E-04 tot_iter= 9081600 conv_iter= 2842400 cpu clock= 5.31E+04
 tran: time= 6.0609E-04 tot_iter=10891588 conv_iter= 3408516 cpu clock= 5.51E+04
 tran: time= 7.0711E-04 tot_iter=12702139 conv_iter= 3976619 cpu clock= 5.71E+04
 tran: time= 8.0813E-04 tot_iter=14517859 conv_iter= 4545189 cpu clock= 5.92E+04
 tran: time= 9.0914E-04 tot_iter=16340009 conv_iter= 5113381 cpu clock= 6.15E+04
 sweep: tran tran0    end, cpu clock= 6.39E+04 peak memory=     328 mb
>info:         ***** hspice job concluded
 lic: Release hspice token(s)
