****** HSPICE -- O-2018.09 linux64 (Aug 26 2018) ******
 Input File: bhv4_z3.sp
 lic:
 lic: FLEXlm: SDK_11.6.9.6
 lic: USER:   ychuang              HOSTNAME: adc
 lic: HOSTID: "b026281535a3"       PID:      121900
 lic: Licensed number of users already reached. Feature:       hspice License path:  26585@lsnctu: F
 lic: MAX # of tokens reached!
 lic: 'setenv META_QUEUE 1' is ON
 lic: hspice waiting for license
 lic: STOP job in queue: CNTL C or/and kill -9 121900
 lic: Using FLEXlm license file:
 lic: 26585@lsnctu
 lic: Checkout 1 hspice
 lic: License/Maintenance for hspice will expire on 14-may-2022/2018.09
 lic: 380(in_use)/380(total) FLOATING license(s) on SERVER 26585@lsnctu
 lic:
 init: begin read circuit files, cpu clock= 2.35E+00
       option search = /usr/cad/synopsys/hspice/cur/hspice/O-2018.09/hs
                         pice/parts/ad
       option runlvl
       option runlvl =     3.00
       option method = gear
       option lvltim =     2.00
       option vntol =    1.000E-06
       option reltol =    1.000E-06
       option rmin =    1.000E-15
       option delmax =    5.000E-10
       option post
       option probe
       option interp
 init: end read circuit files, cpu clock= 2.37E+00 peak memory=     316 mb
 init: begin check errors, cpu clock= 2.37E+00
 init: end check errors, cpu clock= 2.64E+00 peak memory=     323 mb
 init: begin setup matrix, pivot=     0 cpu clock= 2.64E+00
       establish matrix -- done, cpu clock= 2.67E+00 peak memory=     323 mb
       re-order matrix -- done, cpu clock= 2.68E+00 peak memory=     323 mb
 init: end setup matrix, cpu clock= 2.71E+00 peak memory=     324 mb
 dcop: begin dcop, cpu clock= 2.75E+00
 dcop: end dcop, cpu clock= 3.02E+00 peak memory=     324 mb tot_iter=      23
 output: b tran: time= 3.0305E-04 tot_iter= 5445140 conv_iter= 1703237 cpu clock= 5.05E+03
 tran: tim lic: Reconnect to license server is done
 lic: Reconnect to license server is done
 lic: Reconnect to license server is done
 tran: time= 1.0102E-04 tot_iter= 1812111 conv_iter=  566552 cpu clock= 1.05E+04
 tran: time= 2.0203E-04 tot_iter= 3629563 conv_iter= 1134982 cpu clock= 2.34E+04
 tran: time= 3.0305E-04 tot_iter= 5445140 conv_iter= 1703237 cpu clock= 3.61E+04
 tran: time= 4.0406E-04 tot_iter= 7259628 conv_iter= 2271784 cpu clock= 4.72E+04
 tran: time= 5.0508E-04 tot_iter= 9079941 conv_iter= 2840675 cpu clock= 5.72E+04
 tran: time= 6.0609E-04 tot_iter=10887824 conv_iter= 3407613 cpu clock= 6.75E+04
 tran: time= 7.0711E-04 tot_iter=12698335 conv_iter= 3974652 cpu clock= 7.72E+04
 tran: time= 8.0813E-04 tot_iter=14523837 conv_iter= 4543963 cpu clock= 7.98E+04
 tran: time= 9.0914E-04 tot_iter=16350351 conv_iter= 5113413 cpu clock= 8.11E+04
 sweep: tran tran0    end, cpu clock= 8.22E+04 peak memory=     328 mb
>info:         ***** hspice job concluded
 lic: Release hspice token(s)
