****** HSPICE -- O-2018.09 linux64 (Aug 26 2018) ******
 Input File: bhv4_z5.sp
 lic:
 lic: FLEXlm: SDK_11.6.9.6
 lic: USER:   ychuang              HOSTNAME: adc
 lic: HOSTID: "b026281535a3"       PID:      121924
 lic: Licensed number of users already reached. Feature:       hspice License path:  26585@lsnctu: F
 lic: MAX # of tokens reached!
 lic: 'setenv META_QUEUE 1' is ON
 lic: hspice waiting for license
 lic: STOP job in queue: CNTL C or/and kill -9 121924
 lic: Try to reconnect to license server: 1/10
 lic: Reconnect to license server is done
 lic: Using FLEXlm license file:
 lic: 26585@lsnctu
 lic: Checkout 1 hspice
 lic: License/Maintenance for hspice will expire on 14-may-2022/2018.09
 lic: 379(in_use)/380(total) FLOATING license(s) on SERVER 26585@lsnctu
 lic:
 init: begin read circuit files, cpu clock= 2.85E+00
       option search = /usr/cad/synopsys/hspice/cur/hspice/O-2018.09/hs
                         pice/parts/ad
       option runlvl
       option runlvl =     3.00
       option method = gear
       option lvltim =     2.00
       option vntol =    1.000E-06
       option reltol =    1.000E-06
       option rmin =    1.000E-15
       option delmax =    5.000E-10
       option post
       option probe
       option interp
 init: end read circuit files, cpu clock= 2.86E+00 peak memory=     316 mb
 init: begin check errors, cpu clock= 2.86E+00
 init: end check errors, cpu clock= 3.12E+00 peak memory=     323 mb
 init: begin setup matrix, pivot=     0 cpu clock= 3.12E+00
       establish matrix -- done, cpu clock= 3.15E+00 peak memory=     323 mb
       re-order matrix -- done, cpu clock= 3.16E+00 peak memory=     323 mb
 init: end setup matrix, cpu clock= 3.18E+00 peak memory=     324 mb
 dcop: begin dcop, cpu clock= 3.22E+00
 dcop: end dcop, cpu clock= 3.53E+00 peak memory=     324 mb tot_iter=      23
 output: bhv4_z5.tr0
 sweep: tran tran0    begin, stop lic: Reconnect to license server is done
 lic: Try to reconnect to license server: 1/10
 lic: Reconnect to license server is done
 lic: Reconnect to license server is done
 tran: time= 1.0102E-04 tot_iter= 1805065 conv_iter=  565317 cpu clock= 6.56E+03
 tran: time= 2.0203E-04 tot_iter= 3625730 conv_iter= 1134810 cpu clock= 1.85E+04
 tran: time= 3.0305E-04 tot_iter= 5447852 conv_iter= 1704006 cpu clock= 3.06E+04
 tran: t tran: time= 3.0305E-04 tot_iter= 5447852 conv_iter= 1704006 cpu clock= 3 tran: t tran: time= 4.0406E-04 tot_iter= 7266292 conv_iter= 2272999 cpu clock= 5 tran: t tran: time= 5.0508E-04 tot_iter= 9072464 conv_iter= 2840705 cpu clock= 5 tran: t tran: time= 6.0609E-04 tot_iter=10889650 conv_iter= 3409018 cpu clock= 6 tran: time= 8.0813E-04 tot_iter=14524402 conv_iter= 4545077 cpu clock= 7.73E+04
 tran: time= 9.0914E-04 tot_iter=16350425 conv_iter= 5114456 cpu clock= 7.95E+04
 sweep: tran tran0    end, cpu clock= 8.11E+04 peak memory=     328 mb
>info:         *** sweep: tran tran0    end, cpu clock= 7.40E+04 peak memory=     328 mb
>info:         ***** hspice job concluded
 lic: Release hspice token(s)
