****** HSPICE -- O-2018.09 linux64 (Aug 26 2018) ******
 Input File: bhv4.sp
 lic:
 lic: FLEXlm: SDK_11.6.9.6
 lic: USER:   ychuang              HOSTNAME: adc
 lic: HOSTID: "b026281535a3"       PID:      121854
 lic: Licensed number of users already reached. Feature:       hspice License path:  26585@lsnctu: F
 lic: MAX # of tokens reached!
 lic: 'setenv META_QUEUE 1' is ON
 lic: hspice waiting for license
 lic: STOP job in queue: CNTL C or/and kill -9 121854
 lic: Try to reconnect to license server: 1/10
 lic: Reconnect to license server is done
 lic: Using FLEXlm license file:
 lic: 26585@lsnctu
 lic: Checkout 1 hspice
 lic: License/Maintenance for hspice will expire on 14-may-2022/2018.09
 lic: 352(in_use)/380(total) FLOATING license(s) on SERVER 26585@lsnctu
 lic:
 init: begin read circuit files, cpu clock= 2.85E+00
       option search = /usr/cad/synopsys/hspice/cur/hspice/O-2018.09/hs
                         pice/parts/ad
       option runlvl
       option runlvl =     3.00
       option method = gear
       option lvltim =     2.00
       option vntol =    1.000E-06
       option reltol =    1.000E-06
       option rmin =    1.000E-15
       option delmax =    5.000E-10
       option post
       option probe
       option interp
 init: end read circuit files, cpu clock= 2.86E+00 peak memory=     316 mb
 init: begin check errors, cpu clock= 2.86E+00
 init: end check errors, cpu clock= 3.13E+00 peak memory=     323 mb
 init: begin setup matrix, pivot=     0 cpu clock= 3.13E+00
       establish matrix -- done, cpu clock= 3.14E+00 peak memory=     323 mb
       re-order matrix -- done, cpu clock= 3.15E+00 peak memory=     323 mb
 init: end setup matrix, cpu clock= 3.17E+00 peak memory=     324 mb
 dcop: begin dcop, cpu clock= 3.22E+00
 dcop: end dcop, cpu clock= 3.52E+00 peak memory=     324 mb tot_iter=      23
 output: bhv4.tr0
 sweep: tran tran0    begin, stop_t=  1.01E-03 #sweeps=**** cpu clock= 3.52E+00
 lic: Try to reconnect to license server: 1/10
 lic: Reconnect to license server is done
 lic: Reconnect  lic: Reconnect to license lic: Reconnect  lic: Try to reconnect to  tran: time= 1.0102E-04 tot_iter= 1812752 conv_iter=  568101 cpu clock= 1.00E+04
 tran: time= 2.0203E-04 tot_iter= 3634882 conv_iter= 1136804 cpu clock= 2.23E+04
 tran: time= 3.0305E-04 tot_iter= 5458301 conv_iter= 1706667 cpu clock= 3.42E+04
 tran: time= 4.0406E-04 tot_iter= 7274212 conv_iter= 2276003 cpu clock= 4.44E+04
 tran: time= 5.0508E-04 tot_iter= 9094682 conv_iter= 2845795 cpu clock= 5.31E+04
 tran: time= 6.0609E-04 tot_iter=10904728 conv_iter= 3413311 cpu clock= 6.09E+04
 tran: time= 7.0711E-04 tot_iter=12718067 conv_iter= 3981720 cpu clock= 6.40E+04
 tran: time= 8.0813E-04 tot_iter=14541804 conv_iter= 4551473 cpu clock= 6.67E+04
 tran: time= 9.0914E-04 tot_iter=16360807 conv_iter= 5121411 cpu clock= 6.89E+04
 sweep: tran tran0    end, cpu clock= 7.35E+04 peak memory=     328 mb
>info:         ***** hspice job concluded
 lic: Release hspice token(s)
