****** HSPICE -- O-2018.09 linux64 (Aug 26 2018) ******
 Input File: test.sp
 lic:
 lic: FLEXlm: SDK_11.6.9.6
 lic: USER:   ychuang              HOSTNAME: adc
 lic: HOSTID: "b4969141dd1f"       PID:      59595
 lic: Using FLEXlm license file:
 lic: 26585@lsnctu
 lic: Checkout 1 hspice
 lic: License/Maintenance for hspice will expire on 14-may-2022/2018.09
 lic: 177(in_use)/190(total) FLOATING license(s) on SERVER 26585@lsnctu
 lic:
 init: begin read circuit files, cpu clock= 3.20E-01
       option search = /usr/cad/synopsys/hspice/cur/hspice/O-2018.09/hs
                         pice/parts/ad
       option runlvl
       option runlvl =     0.00
       option method = gear
       option lvltim =     2.00
       option vntol =    1.000E-06
       option reltol =    1.000E-06
       option rmin =    1.000E-15
       option delmax =    1.000E-09
       option post =     2.00
       option probe
       option interp
 init: end read circuit files, cpu clock= 3.30E-01 peak memory=     321 mb
 init: begin check errors, cpu clock= 3.30E-01
  **warning**  No DC path to ground from node       10:
 init: end check errors, cpu clock= 4.20E-01 peak memory=     327 mb
 init: begin setup matrix, pivot=     0 cpu clock= 4.20E-01
       establish matrix -- done, cpu clock= 4.20E-01 peak memory=     327 mb
       re-order matrix -- done, cpu clock= 4.30E-01 peak memory=     327 mb
 init: end setup matrix, cpu clock= 4.30E-01 peak memory=     327 mb
 dcop: begin dcop, cpu clock= 4.40E-01
 dcop: end dcop, cpu clock= 5.10E-01 peak memory=     327 mb tot_iter=      11
 output: test.tr0
 sweep: tran tran0    begin, stop_t=  1.00E-05 #sweeps=  11 cpu clock= 5.10E-01
 tran: time= 1.0003E-06 tot_iter=   14387 conv_iter=    4348 cpu clock= 4.85E+00
 tran: time= 2.0003E-06 tot_iter=   29072 conv_iter=    8791 cpu clock= 9.03E+00
 tran: time= 3.0003E-06 tot_iter=   43903 conv_iter=   13223 cpu clock= 1.33E+01
 tran: time= 4.0008E-06 tot_iter=   58854 conv_iter=   17713 cpu clock= 1.75E+01
 tran: time= 5.0003E-06 tot_iter=   74445 conv_iter=   22373 cpu clock= 2.20E+01
 tran: time= 6.0003E-06 tot_iter=   88305 conv_iter=   26573 cpu clock= 2.60E+01
 tran: time= 7.0007E-06 tot_iter=  103234 conv_iter=   31049 cpu clock= 3.02E+01
 tran: time= 8.0008E-06 tot_iter=  119118 conv_iter=   35812 cpu clock= 3.48E+01
 tran: time= 9.0003E-06 tot_iter=  133678 conv_iter=   40183 cpu clock= 3.89E+01
 tran: time= 1.0000E-05 tot_iter=  149451 conv_iter=   44891 cpu clock= 4.34E+01
 sweep: tran tran0    end, cpu clock= 4.34E+01 peak memory=     322 mb
>info:         ***** hspice job concluded
 lic: Release hspice token(s)
