Using: /usr/cad/synopsys/hspice/cur/hspice/linux64/hspice bhv5.sp
 ****** HSPICE -- O-2018.09 linux64 (Aug 26 2018) ******                        
  Copyright (c) 1986 - 2019 by Synopsys, Inc. All Rights Reserved.              
  This software and the associated documentation are proprietary
  to Synopsys, Inc. This software may only be used in accordance
  with the terms and conditions of a written license agreement with
  Synopsys, Inc. All other use, reproduction, or distribution of
  this software is strictly prohibited.
  Input File: bhv5.sp                                                           
  Command line options: /usr/cad/synopsys/hspice/cur/hspice/linux64/hspice bhv5.sp
 lic:  
 lic: FLEXlm: SDK_11.6.9.6 
 lic: USER:   ychuang              HOSTNAME: adc 
 lic: HOSTID: "b026281535a3"       PID:      388175 
 lic: Using FLEXlm license file: 
 lic: 26585@lsnctu 
 lic: Checkout 1 hspice 
 lic: License/Maintenance for hspice will expire on 14-may-2022/2018.09 
 lic: 102(in_use)/190(total) FLOATING license(s) on SERVER 26585@lsnctu 
 lic:   

 **warning** RUNLVL=0 option detected. RUNLVL=0 is automatically switched to RUNLVL=5 from Release H-2013.03-SP1. RUNLVL=0 is a legacy setting with poor runtime performance.


1****** HSPICE -- O-2018.09 linux64 (Aug 26 2018) ******                        
 ******  
 * idc_mod simulation

 ****** circuit name directory
 circuit number to circuit name directory
   number circuitname                     definition         multiplier
        0 main circuit
        1 xi46.                           vcvs_cmp           1.00 
        2 xi40.                           nor2_bhv           1.00 
        3 xi26.                           tgb                1.00 
        4 xi33.                           tgb                1.00 
        5 xi32.                           tgb                1.00 
        6 xi28.                           tgb                1.00 
        7 xi35.                           tgb                1.00 
        8 xi34.                           tgb                1.00 
        9 xi36.                           tgb                1.00 
       10 xi29.                           tgb                1.00 
       11 xi31.                           tgb                1.00 
       12 xi25.                           tgb                1.00 
       13 xi24.                           tgb                1.00 
       14 xswvcmp.                        tgb                1.00 
       15 xi30.                           tgb                1.00 
       16 xi27.                           tgb                1.00 
       17 xop.                            fdopb              1.00 
       18 xsa_logic_v5_3cap.              sa_logic_8bit      1.00 
       19 xdffout_7.                      dff_set_rst_schematic
                                                                 1.00 
       20 xdffout_6.                      dff_set_rst_schematic
                                                                 1.00 
       21 xdffout_5.                      dff_set_rst_schematic
                                                                 1.00 
       22 xdffout_4.                      dff_set_rst_schematic
                                                                 1.00 
       23 xdffout_3.                      dff_set_rst_schematic
                                                                 1.00 
       24 xdffout_2.                      dff_set_rst_schematic
                                                                 1.00 
       25 xdffout_1.                      dff_set_rst_schematic
                                                                 1.00 
       26 xdffout_0.                      dff_set_rst_schematic
                                                                 1.00 
       27 xi42.                           nand2_bhv          1.00 
       28 xi37.                           nand2_bhv          1.00 
       29 xi7.                            nand2_bhv          1.00 
       30 xi43.                           inv_bhv            1.00 
       31 xi44.                           inv_bhv            1.00 
       32 xi39.                           inv_bhv            1.00 
       33 xi45.                           inv_bhv            1.00 
       34 xi41.                           inv_bhv            1.00 
       35 xi8.                            inv_bhv            1.00 
       36 xi6.                            inv_bhv            1.00 
       37 xi5.                            inv_bhv            1.00 
       38 xcmplatch.                      dlatch             1.00 
       39 xi40.xn1.                       nmos_b             1.00 
       40 xi40.xi9.                       nmos_b             1.00 
       41 xi40.xp1.                       pmos_b             1.00 
       42 xi40.xi10.                      pmos_b             1.00 
       43 xsa_logic_v5_3cap.xrsh00.       dff_set_rst        1.00 
       44 xsa_logic_v5_3cap.xdata3.       dff_set_rst        1.00 
       45 xsa_logic_v5_3cap.xdata2.       dff_set_rst        1.00 
       46 xsa_logic_v5_3cap.xdata1.       dff_set_rst        1.00 
       47 xsa_logic_v5_3cap.xdata00.      dff_set_rst        1.00 
       48 xsa_logic_v5_3cap.xdata0.       dff_set_rst        1.00 
       49 xsa_logic_v5_3cap.xdata5.       dff_set_rst        1.00 
       50 xsa_logic_v5_3cap.xrsh0.        dff_set_rst        1.00 
       51 xsa_logic_v5_3cap.xrsh3.        dff_set_rst        1.00 
       52 xsa_logic_v5_3cap.xrsh2.        dff_set_rst        1.00 
       53 xsa_logic_v5_3cap.xrsh1.        dff_set_rst        1.00 
       54 xsa_logic_v5_3cap.xrsh4.        dff_set_rst        1.00 
       55 xsa_logic_v5_3cap.xdata7.       dff_set_rst        1.00 
       56 xsa_logic_v5_3cap.xrsh5.        dff_set_rst        1.00 
       57 xsa_logic_v5_3cap.xdata6.       dff_set_rst        1.00 
       58 xsa_logic_v5_3cap.xdata4.       dff_set_rst        1.00 
       59 xsa_logic_v5_3cap.xrsh6.        dff_set_rst        1.00 
       60 xsa_logic_v5_3cap.xrsh7.        dff_set_rst        1.00 
       61 xdffout_7.xi1.                  inv_bhv            1.00 
       62 xdffout_7.xi40.                 tgb                1.00 
       63 xdffout_7.xi34.                 tgb                1.00 
       64 xdffout_7.xi41.                 tgb                1.00 
       65 xdffout_7.xsw1.                 tgb                1.00 
       66 xdffout_7.xi42.                 nor2_bhv           1.00 
       67 xdffout_7.xi43.                 nor2_bhv           1.00 
       68 xdffout_7.xi31.                 nor2_bhv           1.00 
       69 xdffout_7.xi37.                 nor2_bhv           1.00 
       70 xdffout_6.xi1.                  inv_bhv            1.00 
       71 xdffout_6.xi40.                 tgb                1.00 
       72 xdffout_6.xi34.                 tgb                1.00 
       73 xdffout_6.xi41.                 tgb                1.00 
       74 xdffout_6.xsw1.                 tgb                1.00 
       75 xdffout_6.xi42.                 nor2_bhv           1.00 
       76 xdffout_6.xi43.                 nor2_bhv           1.00 
       77 xdffout_6.xi31.                 nor2_bhv           1.00 
       78 xdffout_6.xi37.                 nor2_bhv           1.00 
       79 xdffout_5.xi1.                  inv_bhv            1.00 
       80 xdffout_5.xi40.                 tgb                1.00 
       81 xdffout_5.xi34.                 tgb                1.00 
       82 xdffout_5.xi41.                 tgb                1.00 
       83 xdffout_5.xsw1.                 tgb                1.00 
       84 xdffout_5.xi42.                 nor2_bhv           1.00 
       85 xdffout_5.xi43.                 nor2_bhv           1.00 
       86 xdffout_5.xi31.                 nor2_bhv           1.00 
       87 xdffout_5.xi37.                 nor2_bhv           1.00 
       88 xdffout_4.xi1.                  inv_bhv            1.00 
       89 xdffout_4.xi40.                 tgb                1.00 
       90 xdffout_4.xi34.                 tgb                1.00 
       91 xdffout_4.xi41.                 tgb                1.00 
       92 xdffout_4.xsw1.                 tgb                1.00 
       93 xdffout_4.xi42.                 nor2_bhv           1.00 
       94 xdffout_4.xi43.                 nor2_bhv           1.00 
       95 xdffout_4.xi31.                 nor2_bhv           1.00 
       96 xdffout_4.xi37.                 nor2_bhv           1.00 
       97 xdffout_3.xi1.                  inv_bhv            1.00 
       98 xdffout_3.xi40.                 tgb                1.00 
       99 xdffout_3.xi34.                 tgb                1.00 
      100 xdffout_3.xi41.                 tgb                1.00 
      101 xdffout_3.xsw1.                 tgb                1.00 
      102 xdffout_3.xi42.                 nor2_bhv           1.00 
      103 xdffout_3.xi43.                 nor2_bhv           1.00 
      104 xdffout_3.xi31.                 nor2_bhv           1.00 
      105 xdffout_3.xi37.                 nor2_bhv           1.00 
      106 xdffout_2.xi1.                  inv_bhv            1.00 
      107 xdffout_2.xi40.                 tgb                1.00 
      108 xdffout_2.xi34.                 tgb                1.00 
      109 xdffout_2.xi41.                 tgb                1.00 
      110 xdffout_2.xsw1.                 tgb                1.00 
      111 xdffout_2.xi42.                 nor2_bhv           1.00 
      112 xdffout_2.xi43.                 nor2_bhv           1.00 
      113 xdffout_2.xi31.                 nor2_bhv           1.00 
      114 xdffout_2.xi37.                 nor2_bhv           1.00 
      115 xdffout_1.xi1.                  inv_bhv            1.00 
      116 xdffout_1.xi40.                 tgb                1.00 
      117 xdffout_1.xi34.                 tgb                1.00 
      118 xdffout_1.xi41.                 tgb                1.00 
      119 xdffout_1.xsw1.                 tgb                1.00 
      120 xdffout_1.xi42.                 nor2_bhv           1.00 
      121 xdffout_1.xi43.                 nor2_bhv           1.00 
      122 xdffout_1.xi31.                 nor2_bhv           1.00 
      123 xdffout_1.xi37.                 nor2_bhv           1.00 
      124 xdffout_0.xi1.                  inv_bhv            1.00 
      125 xdffout_0.xi40.                 tgb                1.00 
      126 xdffout_0.xi34.                 tgb                1.00 
      127 xdffout_0.xi41.                 tgb                1.00 
      128 xdffout_0.xsw1.                 tgb                1.00 
      129 xdffout_0.xi42.                 nor2_bhv           1.00 
      130 xdffout_0.xi43.                 nor2_bhv           1.00 
      131 xdffout_0.xi31.                 nor2_bhv           1.00 
      132 xdffout_0.xi37.                 nor2_bhv           1.00 
      133 xi42.xn1.                       nmos_b             1.00 
      134 xi42.xi9.                       nmos_b             1.00 
      135 xi42.xp1.                       pmos_b             1.00 
      136 xi42.xi10.                      pmos_b             1.00 
      137 xi37.xn1.                       nmos_b             1.00 
      138 xi37.xi9.                       nmos_b             1.00 
      139 xi37.xp1.                       pmos_b             1.00 
      140 xi37.xi10.                      pmos_b             1.00 
      141 xi7.xn1.                        nmos_b             1.00 
      142 xi7.xi9.                        nmos_b             1.00 
      143 xi7.xp1.                        pmos_b             1.00 
      144 xi7.xi10.                       pmos_b             1.00 
      145 xi43.xp1.                       pmos_b             1.00 
      146 xi43.xn1.                       nmos_b             1.00 
      147 xi44.xp1.                       pmos_b             1.00 
      148 xi44.xn1.                       nmos_b             1.00 
      149 xi39.xp1.                       pmos_b             1.00 
      150 xi39.xn1.                       nmos_b             1.00 
      151 xi45.xp1.                       pmos_b             1.00 
      152 xi45.xn1.                       nmos_b             1.00 
      153 xi41.xp1.                       pmos_b             1.00 
      154 xi41.xn1.                       nmos_b             1.00 
      155 xi8.xp1.                        pmos_b             1.00 
      156 xi8.xn1.                        nmos_b             1.00 
      157 xi6.xp1.                        pmos_b             1.00 
      158 xi6.xn1.                        nmos_b             1.00 
      159 xi5.xp1.                        pmos_b             1.00 
      160 xi5.xn1.                        nmos_b             1.00 
      161 xcmplatch.xi2.                  inv_bhv            1.00 
      162 xcmplatch.xi1.                  inv_bhv            1.00 
      163 xcmplatch.xi29.                 tgb                1.00 
      164 xcmplatch.xsw1.                 tgb                1.00 
      165 xsa_logic_v5_3cap.xrsh00.xi1.   inv_bhv            1.00 
      166 xsa_logic_v5_3cap.xrsh00.xi40.  tgb                1.00 
      167 xsa_logic_v5_3cap.xrsh00.xi34.  tgb                1.00 
      168 xsa_logic_v5_3cap.xrsh00.xi41.  tgb                1.00 
      169 xsa_logic_v5_3cap.xrsh00.xsw1.  tgb                1.00 
      170 xsa_logic_v5_3cap.xrsh00.xi42.  nor2_bhv           1.00 
      171 xsa_logic_v5_3cap.xrsh00.xi43.  nor2_bhv           1.00 
      172 xsa_logic_v5_3cap.xrsh00.xi31.  nor2_bhv           1.00 
      173 xsa_logic_v5_3cap.xrsh00.xi37.  nor2_bhv           1.00 
      174 xsa_logic_v5_3cap.xdata3.xi1.   inv_bhv            1.00 
      175 xsa_logic_v5_3cap.xdata3.xi40.  tgb                1.00 
      176 xsa_logic_v5_3cap.xdata3.xi34.  tgb                1.00 
      177 xsa_logic_v5_3cap.xdata3.xi41.  tgb                1.00 
      178 xsa_logic_v5_3cap.xdata3.xsw1.  tgb                1.00 
      179 xsa_logic_v5_3cap.xdata3.xi42.  nor2_bhv           1.00 
      180 xsa_logic_v5_3cap.xdata3.xi43.  nor2_bhv           1.00 
      181 xsa_logic_v5_3cap.xdata3.xi31.  nor2_bhv           1.00 
      182 xsa_logic_v5_3cap.xdata3.xi37.  nor2_bhv           1.00 
      183 xsa_logic_v5_3cap.xdata2.xi1.   inv_bhv            1.00 
      184 xsa_logic_v5_3cap.xdata2.xi40.  tgb                1.00 
      185 xsa_logic_v5_3cap.xdata2.xi34.  tgb                1.00 
      186 xsa_logic_v5_3cap.xdata2.xi41.  tgb                1.00 
      187 xsa_logic_v5_3cap.xdata2.xsw1.  tgb                1.00 
      188 xsa_logic_v5_3cap.xdata2.xi42.  nor2_bhv           1.00 
      189 xsa_logic_v5_3cap.xdata2.xi43.  nor2_bhv           1.00 
      190 xsa_logic_v5_3cap.xdata2.xi31.  nor2_bhv           1.00 
      191 xsa_logic_v5_3cap.xdata2.xi37.  nor2_bhv           1.00 
      192 xsa_logic_v5_3cap.xdata1.xi1.   inv_bhv            1.00 
      193 xsa_logic_v5_3cap.xdata1.xi40.  tgb                1.00 
      194 xsa_logic_v5_3cap.xdata1.xi34.  tgb                1.00 
      195 xsa_logic_v5_3cap.xdata1.xi41.  tgb                1.00 
      196 xsa_logic_v5_3cap.xdata1.xsw1.  tgb                1.00 
      197 xsa_logic_v5_3cap.xdata1.xi42.  nor2_bhv           1.00 
      198 xsa_logic_v5_3cap.xdata1.xi43.  nor2_bhv           1.00 
      199 xsa_logic_v5_3cap.xdata1.xi31.  nor2_bhv           1.00 
      200 xsa_logic_v5_3cap.xdata1.xi37.  nor2_bhv           1.00 
      201 xsa_logic_v5_3cap.xdata00.xi1.  inv_bhv            1.00 
      202 xsa_logic_v5_3cap.xdata00.xi40. tgb                1.00 
      203 xsa_logic_v5_3cap.xdata00.xi34. tgb                1.00 
      204 xsa_logic_v5_3cap.xdata00.xi41. tgb                1.00 
      205 xsa_logic_v5_3cap.xdata00.xsw1. tgb                1.00 
      206 xsa_logic_v5_3cap.xdata00.xi42. nor2_bhv           1.00 
      207 xsa_logic_v5_3cap.xdata00.xi43. nor2_bhv           1.00 
      208 xsa_logic_v5_3cap.xdata00.xi31. nor2_bhv           1.00 
      209 xsa_logic_v5_3cap.xdata00.xi37. nor2_bhv           1.00 
      210 xsa_logic_v5_3cap.xdata0.xi1.   inv_bhv            1.00 
      211 xsa_logic_v5_3cap.xdata0.xi40.  tgb                1.00 
      212 xsa_logic_v5_3cap.xdata0.xi34.  tgb                1.00 
      213 xsa_logic_v5_3cap.xdata0.xi41.  tgb                1.00 
      214 xsa_logic_v5_3cap.xdata0.xsw1.  tgb                1.00 
      215 xsa_logic_v5_3cap.xdata0.xi42.  nor2_bhv           1.00 
      216 xsa_logic_v5_3cap.xdata0.xi43.  nor2_bhv           1.00 
      217 xsa_logic_v5_3cap.xdata0.xi31.  nor2_bhv           1.00 
      218 xsa_logic_v5_3cap.xdata0.xi37.  nor2_bhv           1.00 
      219 xsa_logic_v5_3cap.xdata5.xi1.   inv_bhv            1.00 
      220 xsa_logic_v5_3cap.xdata5.xi40.  tgb                1.00 
      221 xsa_logic_v5_3cap.xdata5.xi34.  tgb                1.00 
      222 xsa_logic_v5_3cap.xdata5.xi41.  tgb                1.00 
      223 xsa_logic_v5_3cap.xdata5.xsw1.  tgb                1.00 
      224 xsa_logic_v5_3cap.xdata5.xi42.  nor2_bhv           1.00 
      225 xsa_logic_v5_3cap.xdata5.xi43.  nor2_bhv           1.00 
      226 xsa_logic_v5_3cap.xdata5.xi31.  nor2_bhv           1.00 
      227 xsa_logic_v5_3cap.xdata5.xi37.  nor2_bhv           1.00 
      228 xsa_logic_v5_3cap.xrsh0.xi1.    inv_bhv            1.00 
      229 xsa_logic_v5_3cap.xrsh0.xi40.   tgb                1.00 
      230 xsa_logic_v5_3cap.xrsh0.xi34.   tgb                1.00 
      231 xsa_logic_v5_3cap.xrsh0.xi41.   tgb                1.00 
      232 xsa_logic_v5_3cap.xrsh0.xsw1.   tgb                1.00 
      233 xsa_logic_v5_3cap.xrsh0.xi42.   nor2_bhv           1.00 
      234 xsa_logic_v5_3cap.xrsh0.xi43.   nor2_bhv           1.00 
      235 xsa_logic_v5_3cap.xrsh0.xi31.   nor2_bhv           1.00 
      236 xsa_logic_v5_3cap.xrsh0.xi37.   nor2_bhv           1.00 
      237 xsa_logic_v5_3cap.xrsh3.xi1.    inv_bhv            1.00 
      238 xsa_logic_v5_3cap.xrsh3.xi40.   tgb                1.00 
      239 xsa_logic_v5_3cap.xrsh3.xi34.   tgb                1.00 
      240 xsa_logic_v5_3cap.xrsh3.xi41.   tgb                1.00 
      241 xsa_logic_v5_3cap.xrsh3.xsw1.   tgb                1.00 
      242 xsa_logic_v5_3cap.xrsh3.xi42.   nor2_bhv           1.00 
      243 xsa_logic_v5_3cap.xrsh3.xi43.   nor2_bhv           1.00 
      244 xsa_logic_v5_3cap.xrsh3.xi31.   nor2_bhv           1.00 
      245 xsa_logic_v5_3cap.xrsh3.xi37.   nor2_bhv           1.00 
      246 xsa_logic_v5_3cap.xrsh2.xi1.    inv_bhv            1.00 
      247 xsa_logic_v5_3cap.xrsh2.xi40.   tgb                1.00 
      248 xsa_logic_v5_3cap.xrsh2.xi34.   tgb                1.00 
      249 xsa_logic_v5_3cap.xrsh2.xi41.   tgb                1.00 
      250 xsa_logic_v5_3cap.xrsh2.xsw1.   tgb                1.00 
      251 xsa_logic_v5_3cap.xrsh2.xi42.   nor2_bhv           1.00 
      252 xsa_logic_v5_3cap.xrsh2.xi43.   nor2_bhv           1.00 
      253 xsa_logic_v5_3cap.xrsh2.xi31.   nor2_bhv           1.00 
      254 xsa_logic_v5_3cap.xrsh2.xi37.   nor2_bhv           1.00 
      255 xsa_logic_v5_3cap.xrsh1.xi1.    inv_bhv            1.00 
      256 xsa_logic_v5_3cap.xrsh1.xi40.   tgb                1.00 
      257 xsa_logic_v5_3cap.xrsh1.xi34.   tgb                1.00 
      258 xsa_logic_v5_3cap.xrsh1.xi41.   tgb                1.00 
      259 xsa_logic_v5_3cap.xrsh1.xsw1.   tgb                1.00 
      260 xsa_logic_v5_3cap.xrsh1.xi42.   nor2_bhv           1.00 
      261 xsa_logic_v5_3cap.xrsh1.xi43.   nor2_bhv           1.00 
      262 xsa_logic_v5_3cap.xrsh1.xi31.   nor2_bhv           1.00 
      263 xsa_logic_v5_3cap.xrsh1.xi37.   nor2_bhv           1.00 
      264 xsa_logic_v5_3cap.xrsh4.xi1.    inv_bhv            1.00 
      265 xsa_logic_v5_3cap.xrsh4.xi40.   tgb                1.00 
      266 xsa_logic_v5_3cap.xrsh4.xi34.   tgb                1.00 
      267 xsa_logic_v5_3cap.xrsh4.xi41.   tgb                1.00 
      268 xsa_logic_v5_3cap.xrsh4.xsw1.   tgb                1.00 
      269 xsa_logic_v5_3cap.xrsh4.xi42.   nor2_bhv           1.00 
      270 xsa_logic_v5_3cap.xrsh4.xi43.   nor2_bhv           1.00 
      271 xsa_logic_v5_3cap.xrsh4.xi31.   nor2_bhv           1.00 
      272 xsa_logic_v5_3cap.xrsh4.xi37.   nor2_bhv           1.00 
      273 xsa_logic_v5_3cap.xdata7.xi1.   inv_bhv            1.00 
      274 xsa_logic_v5_3cap.xdata7.xi40.  tgb                1.00 
      275 xsa_logic_v5_3cap.xdata7.xi34.  tgb                1.00 
      276 xsa_logic_v5_3cap.xdata7.xi41.  tgb                1.00 
      277 xsa_logic_v5_3cap.xdata7.xsw1.  tgb                1.00 
      278 xsa_logic_v5_3cap.xdata7.xi42.  nor2_bhv           1.00 
      279 xsa_logic_v5_3cap.xdata7.xi43.  nor2_bhv           1.00 
      280 xsa_logic_v5_3cap.xdata7.xi31.  nor2_bhv           1.00 
      281 xsa_logic_v5_3cap.xdata7.xi37.  nor2_bhv           1.00 
      282 xsa_logic_v5_3cap.xrsh5.xi1.    inv_bhv            1.00 
      283 xsa_logic_v5_3cap.xrsh5.xi40.   tgb                1.00 
      284 xsa_logic_v5_3cap.xrsh5.xi34.   tgb                1.00 
      285 xsa_logic_v5_3cap.xrsh5.xi41.   tgb                1.00 
      286 xsa_logic_v5_3cap.xrsh5.xsw1.   tgb                1.00 
      287 xsa_logic_v5_3cap.xrsh5.xi42.   nor2_bhv           1.00 
      288 xsa_logic_v5_3cap.xrsh5.xi43.   nor2_bhv           1.00 
      289 xsa_logic_v5_3cap.xrsh5.xi31.   nor2_bhv           1.00 
      290 xsa_logic_v5_3cap.xrsh5.xi37.   nor2_bhv           1.00 
      291 xsa_logic_v5_3cap.xdata6.xi1.   inv_bhv            1.00 
      292 xsa_logic_v5_3cap.xdata6.xi40.  tgb                1.00 
      293 xsa_logic_v5_3cap.xdata6.xi34.  tgb                1.00 
      294 xsa_logic_v5_3cap.xdata6.xi41.  tgb                1.00 
      295 xsa_logic_v5_3cap.xdata6.xsw1.  tgb                1.00 
      296 xsa_logic_v5_3cap.xdata6.xi42.  nor2_bhv           1.00 
      297 xsa_logic_v5_3cap.xdata6.xi43.  nor2_bhv           1.00 
      298 xsa_logic_v5_3cap.xdata6.xi31.  nor2_bhv           1.00 
      299 xsa_logic_v5_3cap.xdata6.xi37.  nor2_bhv           1.00 
      300 xsa_logic_v5_3cap.xdata4.xi1.   inv_bhv            1.00 
      301 xsa_logic_v5_3cap.xdata4.xi40.  tgb                1.00 
      302 xsa_logic_v5_3cap.xdata4.xi34.  tgb                1.00 
      303 xsa_logic_v5_3cap.xdata4.xi41.  tgb                1.00 
      304 xsa_logic_v5_3cap.xdata4.xsw1.  tgb                1.00 
      305 xsa_logic_v5_3cap.xdata4.xi42.  nor2_bhv           1.00 
      306 xsa_logic_v5_3cap.xdata4.xi43.  nor2_bhv           1.00 
      307 xsa_logic_v5_3cap.xdata4.xi31.  nor2_bhv           1.00 
      308 xsa_logic_v5_3cap.xdata4.xi37.  nor2_bhv           1.00 
      309 xsa_logic_v5_3cap.xrsh6.xi1.    inv_bhv            1.00 
      310 xsa_logic_v5_3cap.xrsh6.xi40.   tgb                1.00 
      311 xsa_logic_v5_3cap.xrsh6.xi34.   tgb                1.00 
      312 xsa_logic_v5_3cap.xrsh6.xi41.   tgb                1.00 
      313 xsa_logic_v5_3cap.xrsh6.xsw1.   tgb                1.00 
      314 xsa_logic_v5_3cap.xrsh6.xi42.   nor2_bhv           1.00 
      315 xsa_logic_v5_3cap.xrsh6.xi43.   nor2_bhv           1.00 
      316 xsa_logic_v5_3cap.xrsh6.xi31.   nor2_bhv           1.00 
      317 xsa_logic_v5_3cap.xrsh6.xi37.   nor2_bhv           1.00 
      318 xsa_logic_v5_3cap.xrsh7.xi1.    inv_bhv            1.00 
      319 xsa_logic_v5_3cap.xrsh7.xi40.   tgb                1.00 
      320 xsa_logic_v5_3cap.xrsh7.xi34.   tgb                1.00 
      321 xsa_logic_v5_3cap.xrsh7.xi41.   tgb                1.00 
      322 xsa_logic_v5_3cap.xrsh7.xsw1.   tgb                1.00 
      323 xsa_logic_v5_3cap.xrsh7.xi42.   nor2_bhv           1.00 
      324 xsa_logic_v5_3cap.xrsh7.xi43.   nor2_bhv           1.00 
      325 xsa_logic_v5_3cap.xrsh7.xi31.   nor2_bhv           1.00 
      326 xsa_logic_v5_3cap.xrsh7.xi37.   nor2_bhv           1.00 
      327 xdffout_7.xi1.xp1.              pmos_b             1.00 
      328 xdffout_7.xi1.xn1.              nmos_b             1.00 
      329 xdffout_7.xi42.xn1.             nmos_b             1.00 
      330 xdffout_7.xi42.xi9.             nmos_b             1.00 
      331 xdffout_7.xi42.xp1.             pmos_b             1.00 
      332 xdffout_7.xi42.xi10.            pmos_b             1.00 
      333 xdffout_7.xi43.xn1.             nmos_b             1.00 
      334 xdffout_7.xi43.xi9.             nmos_b             1.00 
      335 xdffout_7.xi43.xp1.             pmos_b             1.00 
      336 xdffout_7.xi43.xi10.            pmos_b             1.00 
      337 xdffout_7.xi31.xn1.             nmos_b             1.00 
      338 xdffout_7.xi31.xi9.             nmos_b             1.00 
      339 xdffout_7.xi31.xp1.             pmos_b             1.00 
      340 xdffout_7.xi31.xi10.            pmos_b             1.00 
      341 xdffout_7.xi37.xn1.             nmos_b             1.00 
      342 xdffout_7.xi37.xi9.             nmos_b             1.00 
      343 xdffout_7.xi37.xp1.             pmos_b             1.00 
      344 xdffout_7.xi37.xi10.            pmos_b             1.00 
      345 xdffout_6.xi1.xp1.              pmos_b             1.00 
      346 xdffout_6.xi1.xn1.              nmos_b             1.00 
      347 xdffout_6.xi42.xn1.             nmos_b             1.00 
      348 xdffout_6.xi42.xi9.             nmos_b             1.00 
      349 xdffout_6.xi42.xp1.             pmos_b             1.00 
      350 xdffout_6.xi42.xi10.            pmos_b             1.00 
      351 xdffout_6.xi43.xn1.             nmos_b             1.00 
      352 xdffout_6.xi43.xi9.             nmos_b             1.00 
      353 xdffout_6.xi43.xp1.             pmos_b             1.00 
      354 xdffout_6.xi43.xi10.            pmos_b             1.00 
      355 xdffout_6.xi31.xn1.             nmos_b             1.00 
      356 xdffout_6.xi31.xi9.             nmos_b             1.00 
      357 xdffout_6.xi31.xp1.             pmos_b             1.00 
      358 xdffout_6.xi31.xi10.            pmos_b             1.00 
      359 xdffout_6.xi37.xn1.             nmos_b             1.00 
      360 xdffout_6.xi37.xi9.             nmos_b             1.00 
      361 xdffout_6.xi37.xp1.             pmos_b             1.00 
      362 xdffout_6.xi37.xi10.            pmos_b             1.00 
      363 xdffout_5.xi1.xp1.              pmos_b             1.00 
      364 xdffout_5.xi1.xn1.              nmos_b             1.00 
      365 xdffout_5.xi42.xn1.             nmos_b             1.00 
      366 xdffout_5.xi42.xi9.             nmos_b             1.00 
      367 xdffout_5.xi42.xp1.             pmos_b             1.00 
      368 xdffout_5.xi42.xi10.            pmos_b             1.00 
      369 xdffout_5.xi43.xn1.             nmos_b             1.00 
      370 xdffout_5.xi43.xi9.             nmos_b             1.00 
      371 xdffout_5.xi43.xp1.             pmos_b             1.00 
      372 xdffout_5.xi43.xi10.            pmos_b             1.00 
      373 xdffout_5.xi31.xn1.             nmos_b             1.00 
      374 xdffout_5.xi31.xi9.             nmos_b             1.00 
      375 xdffout_5.xi31.xp1.             pmos_b             1.00 
      376 xdffout_5.xi31.xi10.            pmos_b             1.00 
      377 xdffout_5.xi37.xn1.             nmos_b             1.00 
      378 xdffout_5.xi37.xi9.             nmos_b             1.00 
      379 xdffout_5.xi37.xp1.             pmos_b             1.00 
      380 xdffout_5.xi37.xi10.            pmos_b             1.00 
      381 xdffout_4.xi1.xp1.              pmos_b             1.00 
      382 xdffout_4.xi1.xn1.              nmos_b             1.00 
      383 xdffout_4.xi42.xn1.             nmos_b             1.00 
      384 xdffout_4.xi42.xi9.             nmos_b             1.00 
      385 xdffout_4.xi42.xp1.             pmos_b             1.00 
      386 xdffout_4.xi42.xi10.            pmos_b             1.00 
      387 xdffout_4.xi43.xn1.             nmos_b             1.00 
      388 xdffout_4.xi43.xi9.             nmos_b             1.00 
      389 xdffout_4.xi43.xp1.             pmos_b             1.00 
      390 xdffout_4.xi43.xi10.            pmos_b             1.00 
      391 xdffout_4.xi31.xn1.             nmos_b             1.00 
      392 xdffout_4.xi31.xi9.             nmos_b             1.00 
      393 xdffout_4.xi31.xp1.             pmos_b             1.00 
      394 xdffout_4.xi31.xi10.            pmos_b             1.00 
      395 xdffout_4.xi37.xn1.             nmos_b             1.00 
      396 xdffout_4.xi37.xi9.             nmos_b             1.00 
      397 xdffout_4.xi37.xp1.             pmos_b             1.00 
      398 xdffout_4.xi37.xi10.            pmos_b             1.00 
      399 xdffout_3.xi1.xp1.              pmos_b             1.00 
      400 xdffout_3.xi1.xn1.              nmos_b             1.00 
      401 xdffout_3.xi42.xn1.             nmos_b             1.00 
      402 xdffout_3.xi42.xi9.             nmos_b             1.00 
      403 xdffout_3.xi42.xp1.             pmos_b             1.00 
      404 xdffout_3.xi42.xi10.            pmos_b             1.00 
      405 xdffout_3.xi43.xn1.             nmos_b             1.00 
      406 xdffout_3.xi43.xi9.             nmos_b             1.00 
      407 xdffout_3.xi43.xp1.             pmos_b             1.00 
      408 xdffout_3.xi43.xi10.            pmos_b             1.00 
      409 xdffout_3.xi31.xn1.             nmos_b             1.00 
      410 xdffout_3.xi31.xi9.             nmos_b             1.00 
      411 xdffout_3.xi31.xp1.             pmos_b             1.00 
      412 xdffout_3.xi31.xi10.            pmos_b             1.00 
      413 xdffout_3.xi37.xn1.             nmos_b             1.00 
      414 xdffout_3.xi37.xi9.             nmos_b             1.00 
      415 xdffout_3.xi37.xp1.             pmos_b             1.00 
      416 xdffout_3.xi37.xi10.            pmos_b             1.00 
      417 xdffout_2.xi1.xp1.              pmos_b             1.00 
      418 xdffout_2.xi1.xn1.              nmos_b             1.00 
      419 xdffout_2.xi42.xn1.             nmos_b             1.00 
      420 xdffout_2.xi42.xi9.             nmos_b             1.00 
      421 xdffout_2.xi42.xp1.             pmos_b             1.00 
      422 xdffout_2.xi42.xi10.            pmos_b             1.00 
      423 xdffout_2.xi43.xn1.             nmos_b             1.00 
      424 xdffout_2.xi43.xi9.             nmos_b             1.00 
      425 xdffout_2.xi43.xp1.             pmos_b             1.00 
      426 xdffout_2.xi43.xi10.            pmos_b             1.00 
      427 xdffout_2.xi31.xn1.             nmos_b             1.00 
      428 xdffout_2.xi31.xi9.             nmos_b             1.00 
      429 xdffout_2.xi31.xp1.             pmos_b             1.00 
      430 xdffout_2.xi31.xi10.            pmos_b             1.00 
      431 xdffout_2.xi37.xn1.             nmos_b             1.00 
      432 xdffout_2.xi37.xi9.             nmos_b             1.00 
      433 xdffout_2.xi37.xp1.             pmos_b             1.00 
      434 xdffout_2.xi37.xi10.            pmos_b             1.00 
      435 xdffout_1.xi1.xp1.              pmos_b             1.00 
      436 xdffout_1.xi1.xn1.              nmos_b             1.00 
      437 xdffout_1.xi42.xn1.             nmos_b             1.00 
      438 xdffout_1.xi42.xi9.             nmos_b             1.00 
      439 xdffout_1.xi42.xp1.             pmos_b             1.00 
      440 xdffout_1.xi42.xi10.            pmos_b             1.00 
      441 xdffout_1.xi43.xn1.             nmos_b             1.00 
      442 xdffout_1.xi43.xi9.             nmos_b             1.00 
      443 xdffout_1.xi43.xp1.             pmos_b             1.00 
      444 xdffout_1.xi43.xi10.            pmos_b             1.00 
      445 xdffout_1.xi31.xn1.             nmos_b             1.00 
      446 xdffout_1.xi31.xi9.             nmos_b             1.00 
      447 xdffout_1.xi31.xp1.             pmos_b             1.00 
      448 xdffout_1.xi31.xi10.            pmos_b             1.00 
      449 xdffout_1.xi37.xn1.             nmos_b             1.00 
      450 xdffout_1.xi37.xi9.             nmos_b             1.00 
      451 xdffout_1.xi37.xp1.             pmos_b             1.00 
      452 xdffout_1.xi37.xi10.            pmos_b             1.00 
      453 xdffout_0.xi1.xp1.              pmos_b             1.00 
      454 xdffout_0.xi1.xn1.              nmos_b             1.00 
      455 xdffout_0.xi42.xn1.             nmos_b             1.00 
      456 xdffout_0.xi42.xi9.             nmos_b             1.00 
      457 xdffout_0.xi42.xp1.             pmos_b             1.00 
      458 xdffout_0.xi42.xi10.            pmos_b             1.00 
      459 xdffout_0.xi43.xn1.             nmos_b             1.00 
      460 xdffout_0.xi43.xi9.             nmos_b             1.00 
      461 xdffout_0.xi43.xp1.             pmos_b             1.00 
      462 xdffout_0.xi43.xi10.            pmos_b             1.00 
      463 xdffout_0.xi31.xn1.             nmos_b             1.00 
      464 xdffout_0.xi31.xi9.             nmos_b             1.00 
      465 xdffout_0.xi31.xp1.             pmos_b             1.00 
      466 xdffout_0.xi31.xi10.            pmos_b             1.00 
      467 xdffout_0.xi37.xn1.             nmos_b             1.00 
      468 xdffout_0.xi37.xi9.             nmos_b             1.00 
      469 xdffout_0.xi37.xp1.             pmos_b             1.00 
      470 xdffout_0.xi37.xi10.            pmos_b             1.00 
      471 xcmplatch.xi2.xp1.              pmos_b             1.00 
      472 xcmplatch.xi2.xn1.              nmos_b             1.00 
      473 xcmplatch.xi1.xp1.              pmos_b             1.00 
      474 xcmplatch.xi1.xn1.              nmos_b             1.00 
      475 xsa_logic_v5_3cap.xrsh00.xi1.xp1.
                                            pmos_b             1.00 
      476 xsa_logic_v5_3cap.xrsh00.xi1.xn1.
                                            nmos_b             1.00 
      477 xsa_logic_v5_3cap.xrsh00.xi42.xn1.
                                            nmos_b             1.00 
      478 xsa_logic_v5_3cap.xrsh00.xi42.xi9.
                                            nmos_b             1.00 
      479 xsa_logic_v5_3cap.xrsh00.xi42.xp1.
                                            pmos_b             1.00 
      480 xsa_logic_v5_3cap.xrsh00.xi42.xi10.
                                            pmos_b             1.00 
      481 xsa_logic_v5_3cap.xrsh00.xi43.xn1.
                                            nmos_b             1.00 
      482 xsa_logic_v5_3cap.xrsh00.xi43.xi9.
                                            nmos_b             1.00 
      483 xsa_logic_v5_3cap.xrsh00.xi43.xp1.
                                            pmos_b             1.00 
      484 xsa_logic_v5_3cap.xrsh00.xi43.xi10.
                                            pmos_b             1.00 
      485 xsa_logic_v5_3cap.xrsh00.xi31.xn1.
                                            nmos_b             1.00 
      486 xsa_logic_v5_3cap.xrsh00.xi31.xi9.
                                            nmos_b             1.00 
      487 xsa_logic_v5_3cap.xrsh00.xi31.xp1.
                                            pmos_b             1.00 
      488 xsa_logic_v5_3cap.xrsh00.xi31.xi10.
                                            pmos_b             1.00 
      489 xsa_logic_v5_3cap.xrsh00.xi37.xn1.
                                            nmos_b             1.00 
      490 xsa_logic_v5_3cap.xrsh00.xi37.xi9.
                                            nmos_b             1.00 
      491 xsa_logic_v5_3cap.xrsh00.xi37.xp1.
                                            pmos_b             1.00 
      492 xsa_logic_v5_3cap.xrsh00.xi37.xi10.
                                            pmos_b             1.00 
      493 xsa_logic_v5_3cap.xdata3.xi1.xp1.
                                            pmos_b             1.00 
      494 xsa_logic_v5_3cap.xdata3.xi1.xn1.
                                            nmos_b             1.00 
      495 xsa_logic_v5_3cap.xdata3.xi42.xn1.
                                            nmos_b             1.00 
      496 xsa_logic_v5_3cap.xdata3.xi42.xi9.
                                            nmos_b             1.00 
      497 xsa_logic_v5_3cap.xdata3.xi42.xp1.
                                            pmos_b             1.00 
      498 xsa_logic_v5_3cap.xdata3.xi42.xi10.
                                            pmos_b             1.00 
      499 xsa_logic_v5_3cap.xdata3.xi43.xn1.
                                            nmos_b             1.00 
      500 xsa_logic_v5_3cap.xdata3.xi43.xi9.
                                            nmos_b             1.00 
      501 xsa_logic_v5_3cap.xdata3.xi43.xp1.
                                            pmos_b             1.00 
      502 xsa_logic_v5_3cap.xdata3.xi43.xi10.
                                            pmos_b             1.00 
      503 xsa_logic_v5_3cap.xdata3.xi31.xn1.
                                            nmos_b             1.00 
      504 xsa_logic_v5_3cap.xdata3.xi31.xi9.
                                            nmos_b             1.00 
      505 xsa_logic_v5_3cap.xdata3.xi31.xp1.
                                            pmos_b             1.00 
      506 xsa_logic_v5_3cap.xdata3.xi31.xi10.
                                            pmos_b             1.00 
      507 xsa_logic_v5_3cap.xdata3.xi37.xn1.
                                            nmos_b             1.00 
      508 xsa_logic_v5_3cap.xdata3.xi37.xi9.
                                            nmos_b             1.00 
      509 xsa_logic_v5_3cap.xdata3.xi37.xp1.
                                            pmos_b             1.00 
      510 xsa_logic_v5_3cap.xdata3.xi37.xi10.
                                            pmos_b             1.00 
      511 xsa_logic_v5_3cap.xdata2.xi1.xp1.
                                            pmos_b             1.00 
      512 xsa_logic_v5_3cap.xdata2.xi1.xn1.
                                            nmos_b             1.00 
      513 xsa_logic_v5_3cap.xdata2.xi42.xn1.
                                            nmos_b             1.00 
      514 xsa_logic_v5_3cap.xdata2.xi42.xi9.
                                            nmos_b             1.00 
      515 xsa_logic_v5_3cap.xdata2.xi42.xp1.
                                            pmos_b             1.00 
      516 xsa_logic_v5_3cap.xdata2.xi42.xi10.
                                            pmos_b             1.00 
      517 xsa_logic_v5_3cap.xdata2.xi43.xn1.
                                            nmos_b             1.00 
      518 xsa_logic_v5_3cap.xdata2.xi43.xi9.
                                            nmos_b             1.00 
      519 xsa_logic_v5_3cap.xdata2.xi43.xp1.
                                            pmos_b             1.00 
      520 xsa_logic_v5_3cap.xdata2.xi43.xi10.
                                            pmos_b             1.00 
      521 xsa_logic_v5_3cap.xdata2.xi31.xn1.
                                            nmos_b             1.00 
      522 xsa_logic_v5_3cap.xdata2.xi31.xi9.
                                            nmos_b             1.00 
      523 xsa_logic_v5_3cap.xdata2.xi31.xp1.
                                            pmos_b             1.00 
      524 xsa_logic_v5_3cap.xdata2.xi31.xi10.
                                            pmos_b             1.00 
      525 xsa_logic_v5_3cap.xdata2.xi37.xn1.
                                            nmos_b             1.00 
      526 xsa_logic_v5_3cap.xdata2.xi37.xi9.
                                            nmos_b             1.00 
      527 xsa_logic_v5_3cap.xdata2.xi37.xp1.
                                            pmos_b             1.00 
      528 xsa_logic_v5_3cap.xdata2.xi37.xi10.
                                            pmos_b             1.00 
      529 xsa_logic_v5_3cap.xdata1.xi1.xp1.
                                            pmos_b             1.00 
      530 xsa_logic_v5_3cap.xdata1.xi1.xn1.
                                            nmos_b             1.00 
      531 xsa_logic_v5_3cap.xdata1.xi42.xn1.
                                            nmos_b             1.00 
      532 xsa_logic_v5_3cap.xdata1.xi42.xi9.
                                            nmos_b             1.00 
      533 xsa_logic_v5_3cap.xdata1.xi42.xp1.
                                            pmos_b             1.00 
      534 xsa_logic_v5_3cap.xdata1.xi42.xi10.
                                            pmos_b             1.00 
      535 xsa_logic_v5_3cap.xdata1.xi43.xn1.
                                            nmos_b             1.00 
      536 xsa_logic_v5_3cap.xdata1.xi43.xi9.
                                            nmos_b             1.00 
      537 xsa_logic_v5_3cap.xdata1.xi43.xp1.
                                            pmos_b             1.00 
      538 xsa_logic_v5_3cap.xdata1.xi43.xi10.
                                            pmos_b             1.00 
      539 xsa_logic_v5_3cap.xdata1.xi31.xn1.
                                            nmos_b             1.00 
      540 xsa_logic_v5_3cap.xdata1.xi31.xi9.
                                            nmos_b             1.00 
      541 xsa_logic_v5_3cap.xdata1.xi31.xp1.
                                            pmos_b             1.00 
      542 xsa_logic_v5_3cap.xdata1.xi31.xi10.
                                            pmos_b             1.00 
      543 xsa_logic_v5_3cap.xdata1.xi37.xn1.
                                            nmos_b             1.00 
      544 xsa_logic_v5_3cap.xdata1.xi37.xi9.
                                            nmos_b             1.00 
      545 xsa_logic_v5_3cap.xdata1.xi37.xp1.
                                            pmos_b             1.00 
      546 xsa_logic_v5_3cap.xdata1.xi37.xi10.
                                            pmos_b             1.00 
      547 xsa_logic_v5_3cap.xdata00.xi1.xp1.
                                            pmos_b             1.00 
      548 xsa_logic_v5_3cap.xdata00.xi1.xn1.
                                            nmos_b             1.00 
      549 xsa_logic_v5_3cap.xdata00.xi42.xn1.
                                            nmos_b             1.00 
      550 xsa_logic_v5_3cap.xdata00.xi42.xi9.
                                            nmos_b             1.00 
      551 xsa_logic_v5_3cap.xdata00.xi42.xp1.
                                            pmos_b             1.00 
      552 xsa_logic_v5_3cap.xdata00.xi42.xi10.
                                            pmos_b             1.00 
      553 xsa_logic_v5_3cap.xdata00.xi43.xn1.
                                            nmos_b             1.00 
      554 xsa_logic_v5_3cap.xdata00.xi43.xi9.
                                            nmos_b             1.00 
      555 xsa_logic_v5_3cap.xdata00.xi43.xp1.
                                            pmos_b             1.00 
      556 xsa_logic_v5_3cap.xdata00.xi43.xi10.
                                            pmos_b             1.00 
      557 xsa_logic_v5_3cap.xdata00.xi31.xn1.
                                            nmos_b             1.00 
      558 xsa_logic_v5_3cap.xdata00.xi31.xi9.
                                            nmos_b             1.00 
      559 xsa_logic_v5_3cap.xdata00.xi31.xp1.
                                            pmos_b             1.00 
      560 xsa_logic_v5_3cap.xdata00.xi31.xi10.
                                            pmos_b             1.00 
      561 xsa_logic_v5_3cap.xdata00.xi37.xn1.
                                            nmos_b             1.00 
      562 xsa_logic_v5_3cap.xdata00.xi37.xi9.
                                            nmos_b             1.00 
      563 xsa_logic_v5_3cap.xdata00.xi37.xp1.
                                            pmos_b             1.00 
      564 xsa_logic_v5_3cap.xdata00.xi37.xi10.
                                            pmos_b             1.00 
      565 xsa_logic_v5_3cap.xdata0.xi1.xp1.
                                            pmos_b             1.00 
      566 xsa_logic_v5_3cap.xdata0.xi1.xn1.
                                            nmos_b             1.00 
      567 xsa_logic_v5_3cap.xdata0.xi42.xn1.
                                            nmos_b             1.00 
      568 xsa_logic_v5_3cap.xdata0.xi42.xi9.
                                            nmos_b             1.00 
      569 xsa_logic_v5_3cap.xdata0.xi42.xp1.
                                            pmos_b             1.00 
      570 xsa_logic_v5_3cap.xdata0.xi42.xi10.
                                            pmos_b             1.00 
      571 xsa_logic_v5_3cap.xdata0.xi43.xn1.
                                            nmos_b             1.00 
      572 xsa_logic_v5_3cap.xdata0.xi43.xi9.
                                            nmos_b             1.00 
      573 xsa_logic_v5_3cap.xdata0.xi43.xp1.
                                            pmos_b             1.00 
      574 xsa_logic_v5_3cap.xdata0.xi43.xi10.
                                            pmos_b             1.00 
      575 xsa_logic_v5_3cap.xdata0.xi31.xn1.
                                            nmos_b             1.00 
      576 xsa_logic_v5_3cap.xdata0.xi31.xi9.
                                            nmos_b             1.00 
      577 xsa_logic_v5_3cap.xdata0.xi31.xp1.
                                            pmos_b             1.00 
      578 xsa_logic_v5_3cap.xdata0.xi31.xi10.
                                            pmos_b             1.00 
      579 xsa_logic_v5_3cap.xdata0.xi37.xn1.
                                            nmos_b             1.00 
      580 xsa_logic_v5_3cap.xdata0.xi37.xi9.
                                            nmos_b             1.00 
      581 xsa_logic_v5_3cap.xdata0.xi37.xp1.
                                            pmos_b             1.00 
      582 xsa_logic_v5_3cap.xdata0.xi37.xi10.
                                            pmos_b             1.00 
      583 xsa_logic_v5_3cap.xdata5.xi1.xp1.
                                            pmos_b             1.00 
      584 xsa_logic_v5_3cap.xdata5.xi1.xn1.
                                            nmos_b             1.00 
      585 xsa_logic_v5_3cap.xdata5.xi42.xn1.
                                            nmos_b             1.00 
      586 xsa_logic_v5_3cap.xdata5.xi42.xi9.
                                            nmos_b             1.00 
      587 xsa_logic_v5_3cap.xdata5.xi42.xp1.
                                            pmos_b             1.00 
      588 xsa_logic_v5_3cap.xdata5.xi42.xi10.
                                            pmos_b             1.00 
      589 xsa_logic_v5_3cap.xdata5.xi43.xn1.
                                            nmos_b             1.00 
      590 xsa_logic_v5_3cap.xdata5.xi43.xi9.
                                            nmos_b             1.00 
      591 xsa_logic_v5_3cap.xdata5.xi43.xp1.
                                            pmos_b             1.00 
      592 xsa_logic_v5_3cap.xdata5.xi43.xi10.
                                            pmos_b             1.00 
      593 xsa_logic_v5_3cap.xdata5.xi31.xn1.
                                            nmos_b             1.00 
      594 xsa_logic_v5_3cap.xdata5.xi31.xi9.
                                            nmos_b             1.00 
      595 xsa_logic_v5_3cap.xdata5.xi31.xp1.
                                            pmos_b             1.00 
      596 xsa_logic_v5_3cap.xdata5.xi31.xi10.
                                            pmos_b             1.00 
      597 xsa_logic_v5_3cap.xdata5.xi37.xn1.
                                            nmos_b             1.00 
      598 xsa_logic_v5_3cap.xdata5.xi37.xi9.
                                            nmos_b             1.00 
      599 xsa_logic_v5_3cap.xdata5.xi37.xp1.
                                            pmos_b             1.00 
      600 xsa_logic_v5_3cap.xdata5.xi37.xi10.
                                            pmos_b             1.00 
      601 xsa_logic_v5_3cap.xrsh0.xi1.xp1.
                                            pmos_b             1.00 
      602 xsa_logic_v5_3cap.xrsh0.xi1.xn1.
                                            nmos_b             1.00 
      603 xsa_logic_v5_3cap.xrsh0.xi42.xn1.
                                            nmos_b             1.00 
      604 xsa_logic_v5_3cap.xrsh0.xi42.xi9.
                                            nmos_b             1.00 
      605 xsa_logic_v5_3cap.xrsh0.xi42.xp1.
                                            pmos_b             1.00 
      606 xsa_logic_v5_3cap.xrsh0.xi42.xi10.
                                            pmos_b             1.00 
      607 xsa_logic_v5_3cap.xrsh0.xi43.xn1.
                                            nmos_b             1.00 
      608 xsa_logic_v5_3cap.xrsh0.xi43.xi9.
                                            nmos_b             1.00 
      609 xsa_logic_v5_3cap.xrsh0.xi43.xp1.
                                            pmos_b             1.00 
      610 xsa_logic_v5_3cap.xrsh0.xi43.xi10.
                                            pmos_b             1.00 
      611 xsa_logic_v5_3cap.xrsh0.xi31.xn1.
                                            nmos_b             1.00 
      612 xsa_logic_v5_3cap.xrsh0.xi31.xi9.
                                            nmos_b             1.00 
      613 xsa_logic_v5_3cap.xrsh0.xi31.xp1.
                                            pmos_b             1.00 
      614 xsa_logic_v5_3cap.xrsh0.xi31.xi10.
                                            pmos_b             1.00 
      615 xsa_logic_v5_3cap.xrsh0.xi37.xn1.
                                            nmos_b             1.00 
      616 xsa_logic_v5_3cap.xrsh0.xi37.xi9.
                                            nmos_b             1.00 
      617 xsa_logic_v5_3cap.xrsh0.xi37.xp1.
                                            pmos_b             1.00 
      618 xsa_logic_v5_3cap.xrsh0.xi37.xi10.
                                            pmos_b             1.00 
      619 xsa_logic_v5_3cap.xrsh3.xi1.xp1.
                                            pmos_b             1.00 
      620 xsa_logic_v5_3cap.xrsh3.xi1.xn1.
                                            nmos_b             1.00 
      621 xsa_logic_v5_3cap.xrsh3.xi42.xn1.
                                            nmos_b             1.00 
      622 xsa_logic_v5_3cap.xrsh3.xi42.xi9.
                                            nmos_b             1.00 
      623 xsa_logic_v5_3cap.xrsh3.xi42.xp1.
                                            pmos_b             1.00 
      624 xsa_logic_v5_3cap.xrsh3.xi42.xi10.
                                            pmos_b             1.00 
      625 xsa_logic_v5_3cap.xrsh3.xi43.xn1.
                                            nmos_b             1.00 
      626 xsa_logic_v5_3cap.xrsh3.xi43.xi9.
                                            nmos_b             1.00 
      627 xsa_logic_v5_3cap.xrsh3.xi43.xp1.
                                            pmos_b             1.00 
      628 xsa_logic_v5_3cap.xrsh3.xi43.xi10.
                                            pmos_b             1.00 
      629 xsa_logic_v5_3cap.xrsh3.xi31.xn1.
                                            nmos_b             1.00 
      630 xsa_logic_v5_3cap.xrsh3.xi31.xi9.
                                            nmos_b             1.00 
      631 xsa_logic_v5_3cap.xrsh3.xi31.xp1.
                                            pmos_b             1.00 
      632 xsa_logic_v5_3cap.xrsh3.xi31.xi10.
                                            pmos_b             1.00 
      633 xsa_logic_v5_3cap.xrsh3.xi37.xn1.
                                            nmos_b             1.00 
      634 xsa_logic_v5_3cap.xrsh3.xi37.xi9.
                                            nmos_b             1.00 
      635 xsa_logic_v5_3cap.xrsh3.xi37.xp1.
                                            pmos_b             1.00 
      636 xsa_logic_v5_3cap.xrsh3.xi37.xi10.
                                            pmos_b             1.00 
      637 xsa_logic_v5_3cap.xrsh2.xi1.xp1.
                                            pmos_b             1.00 
      638 xsa_logic_v5_3cap.xrsh2.xi1.xn1.
                                            nmos_b             1.00 
      639 xsa_logic_v5_3cap.xrsh2.xi42.xn1.
                                            nmos_b             1.00 
      640 xsa_logic_v5_3cap.xrsh2.xi42.xi9.
                                            nmos_b             1.00 
      641 xsa_logic_v5_3cap.xrsh2.xi42.xp1.
                                            pmos_b             1.00 
      642 xsa_logic_v5_3cap.xrsh2.xi42.xi10.
                                            pmos_b             1.00 
      643 xsa_logic_v5_3cap.xrsh2.xi43.xn1.
                                            nmos_b             1.00 
      644 xsa_logic_v5_3cap.xrsh2.xi43.xi9.
                                            nmos_b             1.00 
      645 xsa_logic_v5_3cap.xrsh2.xi43.xp1.
                                            pmos_b             1.00 
      646 xsa_logic_v5_3cap.xrsh2.xi43.xi10.
                                            pmos_b             1.00 
      647 xsa_logic_v5_3cap.xrsh2.xi31.xn1.
                                            nmos_b             1.00 
      648 xsa_logic_v5_3cap.xrsh2.xi31.xi9.
                                            nmos_b             1.00 
      649 xsa_logic_v5_3cap.xrsh2.xi31.xp1.
                                            pmos_b             1.00 
      650 xsa_logic_v5_3cap.xrsh2.xi31.xi10.
                                            pmos_b             1.00 
      651 xsa_logic_v5_3cap.xrsh2.xi37.xn1.
                                            nmos_b             1.00 
      652 xsa_logic_v5_3cap.xrsh2.xi37.xi9.
                                            nmos_b             1.00 
      653 xsa_logic_v5_3cap.xrsh2.xi37.xp1.
                                            pmos_b             1.00 
      654 xsa_logic_v5_3cap.xrsh2.xi37.xi10.
                                            pmos_b             1.00 
      655 xsa_logic_v5_3cap.xrsh1.xi1.xp1.
                                            pmos_b             1.00 
      656 xsa_logic_v5_3cap.xrsh1.xi1.xn1.
                                            nmos_b             1.00 
      657 xsa_logic_v5_3cap.xrsh1.xi42.xn1.
                                            nmos_b             1.00 
      658 xsa_logic_v5_3cap.xrsh1.xi42.xi9.
                                            nmos_b             1.00 
      659 xsa_logic_v5_3cap.xrsh1.xi42.xp1.
                                            pmos_b             1.00 
      660 xsa_logic_v5_3cap.xrsh1.xi42.xi10.
                                            pmos_b             1.00 
      661 xsa_logic_v5_3cap.xrsh1.xi43.xn1.
                                            nmos_b             1.00 
      662 xsa_logic_v5_3cap.xrsh1.xi43.xi9.
                                            nmos_b             1.00 
      663 xsa_logic_v5_3cap.xrsh1.xi43.xp1.
                                            pmos_b             1.00 
      664 xsa_logic_v5_3cap.xrsh1.xi43.xi10.
                                            pmos_b             1.00 
      665 xsa_logic_v5_3cap.xrsh1.xi31.xn1.
                                            nmos_b             1.00 
      666 xsa_logic_v5_3cap.xrsh1.xi31.xi9.
                                            nmos_b             1.00 
      667 xsa_logic_v5_3cap.xrsh1.xi31.xp1.
                                            pmos_b             1.00 
      668 xsa_logic_v5_3cap.xrsh1.xi31.xi10.
                                            pmos_b             1.00 
      669 xsa_logic_v5_3cap.xrsh1.xi37.xn1.
                                            nmos_b             1.00 
      670 xsa_logic_v5_3cap.xrsh1.xi37.xi9.
                                            nmos_b             1.00 
      671 xsa_logic_v5_3cap.xrsh1.xi37.xp1.
                                            pmos_b             1.00 
      672 xsa_logic_v5_3cap.xrsh1.xi37.xi10.
                                            pmos_b             1.00 
      673 xsa_logic_v5_3cap.xrsh4.xi1.xp1.
                                            pmos_b             1.00 
      674 xsa_logic_v5_3cap.xrsh4.xi1.xn1.
                                            nmos_b             1.00 
      675 xsa_logic_v5_3cap.xrsh4.xi42.xn1.
                                            nmos_b             1.00 
      676 xsa_logic_v5_3cap.xrsh4.xi42.xi9.
                                            nmos_b             1.00 
      677 xsa_logic_v5_3cap.xrsh4.xi42.xp1.
                                            pmos_b             1.00 
      678 xsa_logic_v5_3cap.xrsh4.xi42.xi10.
                                            pmos_b             1.00 
      679 xsa_logic_v5_3cap.xrsh4.xi43.xn1.
                                            nmos_b             1.00 
      680 xsa_logic_v5_3cap.xrsh4.xi43.xi9.
                                            nmos_b             1.00 
      681 xsa_logic_v5_3cap.xrsh4.xi43.xp1.
                                            pmos_b             1.00 
      682 xsa_logic_v5_3cap.xrsh4.xi43.xi10.
                                            pmos_b             1.00 
      683 xsa_logic_v5_3cap.xrsh4.xi31.xn1.
                                            nmos_b             1.00 
      684 xsa_logic_v5_3cap.xrsh4.xi31.xi9.
                                            nmos_b             1.00 
      685 xsa_logic_v5_3cap.xrsh4.xi31.xp1.
                                            pmos_b             1.00 
      686 xsa_logic_v5_3cap.xrsh4.xi31.xi10.
                                            pmos_b             1.00 
      687 xsa_logic_v5_3cap.xrsh4.xi37.xn1.
                                            nmos_b             1.00 
      688 xsa_logic_v5_3cap.xrsh4.xi37.xi9.
                                            nmos_b             1.00 
      689 xsa_logic_v5_3cap.xrsh4.xi37.xp1.
                                            pmos_b             1.00 
      690 xsa_logic_v5_3cap.xrsh4.xi37.xi10.
                                            pmos_b             1.00 
      691 xsa_logic_v5_3cap.xdata7.xi1.xp1.
                                            pmos_b             1.00 
      692 xsa_logic_v5_3cap.xdata7.xi1.xn1.
                                            nmos_b             1.00 
      693 xsa_logic_v5_3cap.xdata7.xi42.xn1.
                                            nmos_b             1.00 
      694 xsa_logic_v5_3cap.xdata7.xi42.xi9.
                                            nmos_b             1.00 
      695 xsa_logic_v5_3cap.xdata7.xi42.xp1.
                                            pmos_b             1.00 
      696 xsa_logic_v5_3cap.xdata7.xi42.xi10.
                                            pmos_b             1.00 
      697 xsa_logic_v5_3cap.xdata7.xi43.xn1.
                                            nmos_b             1.00 
      698 xsa_logic_v5_3cap.xdata7.xi43.xi9.
                                            nmos_b             1.00 
      699 xsa_logic_v5_3cap.xdata7.xi43.xp1.
                                            pmos_b             1.00 
      700 xsa_logic_v5_3cap.xdata7.xi43.xi10.
                                            pmos_b             1.00 
      701 xsa_logic_v5_3cap.xdata7.xi31.xn1.
                                            nmos_b             1.00 
      702 xsa_logic_v5_3cap.xdata7.xi31.xi9.
                                            nmos_b             1.00 
      703 xsa_logic_v5_3cap.xdata7.xi31.xp1.
                                            pmos_b             1.00 
      704 xsa_logic_v5_3cap.xdata7.xi31.xi10.
                                            pmos_b             1.00 
      705 xsa_logic_v5_3cap.xdata7.xi37.xn1.
                                            nmos_b             1.00 
      706 xsa_logic_v5_3cap.xdata7.xi37.xi9.
                                            nmos_b             1.00 
      707 xsa_logic_v5_3cap.xdata7.xi37.xp1.
                                            pmos_b             1.00 
      708 xsa_logic_v5_3cap.xdata7.xi37.xi10.
                                            pmos_b             1.00 
      709 xsa_logic_v5_3cap.xrsh5.xi1.xp1.
                                            pmos_b             1.00 
      710 xsa_logic_v5_3cap.xrsh5.xi1.xn1.
                                            nmos_b             1.00 
      711 xsa_logic_v5_3cap.xrsh5.xi42.xn1.
                                            nmos_b             1.00 
      712 xsa_logic_v5_3cap.xrsh5.xi42.xi9.
                                            nmos_b             1.00 
      713 xsa_logic_v5_3cap.xrsh5.xi42.xp1.
                                            pmos_b             1.00 
      714 xsa_logic_v5_3cap.xrsh5.xi42.xi10.
                                            pmos_b             1.00 
      715 xsa_logic_v5_3cap.xrsh5.xi43.xn1.
                                            nmos_b             1.00 
      716 xsa_logic_v5_3cap.xrsh5.xi43.xi9.
                                            nmos_b             1.00 
      717 xsa_logic_v5_3cap.xrsh5.xi43.xp1.
                                            pmos_b             1.00 
      718 xsa_logic_v5_3cap.xrsh5.xi43.xi10.
                                            pmos_b             1.00 
      719 xsa_logic_v5_3cap.xrsh5.xi31.xn1.
                                            nmos_b             1.00 
      720 xsa_logic_v5_3cap.xrsh5.xi31.xi9.
                                            nmos_b             1.00 
      721 xsa_logic_v5_3cap.xrsh5.xi31.xp1.
                                            pmos_b             1.00 
      722 xsa_logic_v5_3cap.xrsh5.xi31.xi10.
                                            pmos_b             1.00 
      723 xsa_logic_v5_3cap.xrsh5.xi37.xn1.
                                            nmos_b             1.00 
      724 xsa_logic_v5_3cap.xrsh5.xi37.xi9.
                                            nmos_b             1.00 
      725 xsa_logic_v5_3cap.xrsh5.xi37.xp1.
                                            pmos_b             1.00 
      726 xsa_logic_v5_3cap.xrsh5.xi37.xi10.
                                            pmos_b             1.00 
      727 xsa_logic_v5_3cap.xdata6.xi1.xp1.
                                            pmos_b             1.00 
      728 xsa_logic_v5_3cap.xdata6.xi1.xn1.
                                            nmos_b             1.00 
      729 xsa_logic_v5_3cap.xdata6.xi42.xn1.
                                            nmos_b             1.00 
      730 xsa_logic_v5_3cap.xdata6.xi42.xi9.
                                            nmos_b             1.00 
      731 xsa_logic_v5_3cap.xdata6.xi42.xp1.
                                            pmos_b             1.00 
      732 xsa_logic_v5_3cap.xdata6.xi42.xi10.
                                            pmos_b             1.00 
      733 xsa_logic_v5_3cap.xdata6.xi43.xn1.
                                            nmos_b             1.00 
      734 xsa_logic_v5_3cap.xdata6.xi43.xi9.
                                            nmos_b             1.00 
      735 xsa_logic_v5_3cap.xdata6.xi43.xp1.
                                            pmos_b             1.00 
      736 xsa_logic_v5_3cap.xdata6.xi43.xi10.
                                            pmos_b             1.00 
      737 xsa_logic_v5_3cap.xdata6.xi31.xn1.
                                            nmos_b             1.00 
      738 xsa_logic_v5_3cap.xdata6.xi31.xi9.
                                            nmos_b             1.00 
      739 xsa_logic_v5_3cap.xdata6.xi31.xp1.
                                            pmos_b             1.00 
      740 xsa_logic_v5_3cap.xdata6.xi31.xi10.
                                            pmos_b             1.00 
      741 xsa_logic_v5_3cap.xdata6.xi37.xn1.
                                            nmos_b             1.00 
      742 xsa_logic_v5_3cap.xdata6.xi37.xi9.
                                            nmos_b             1.00 
      743 xsa_logic_v5_3cap.xdata6.xi37.xp1.
                                            pmos_b             1.00 
      744 xsa_logic_v5_3cap.xdata6.xi37.xi10.
                                            pmos_b             1.00 
      745 xsa_logic_v5_3cap.xdata4.xi1.xp1.
                                            pmos_b             1.00 
      746 xsa_logic_v5_3cap.xdata4.xi1.xn1.
                                            nmos_b             1.00 
      747 xsa_logic_v5_3cap.xdata4.xi42.xn1.
                                            nmos_b             1.00 
      748 xsa_logic_v5_3cap.xdata4.xi42.xi9.
                                            nmos_b             1.00 
      749 xsa_logic_v5_3cap.xdata4.xi42.xp1.
                                            pmos_b             1.00 
      750 xsa_logic_v5_3cap.xdata4.xi42.xi10.
                                            pmos_b             1.00 
      751 xsa_logic_v5_3cap.xdata4.xi43.xn1.
                                            nmos_b             1.00 
      752 xsa_logic_v5_3cap.xdata4.xi43.xi9.
                                            nmos_b             1.00 
      753 xsa_logic_v5_3cap.xdata4.xi43.xp1.
                                            pmos_b             1.00 
      754 xsa_logic_v5_3cap.xdata4.xi43.xi10.
                                            pmos_b             1.00 
      755 xsa_logic_v5_3cap.xdata4.xi31.xn1.
                                            nmos_b             1.00 
      756 xsa_logic_v5_3cap.xdata4.xi31.xi9.
                                            nmos_b             1.00 
      757 xsa_logic_v5_3cap.xdata4.xi31.xp1.
                                            pmos_b             1.00 
      758 xsa_logic_v5_3cap.xdata4.xi31.xi10.
                                            pmos_b             1.00 
      759 xsa_logic_v5_3cap.xdata4.xi37.xn1.
                                            nmos_b             1.00 
      760 xsa_logic_v5_3cap.xdata4.xi37.xi9.
                                            nmos_b             1.00 
      761 xsa_logic_v5_3cap.xdata4.xi37.xp1.
                                            pmos_b             1.00 
      762 xsa_logic_v5_3cap.xdata4.xi37.xi10.
                                            pmos_b             1.00 
      763 xsa_logic_v5_3cap.xrsh6.xi1.xp1.
                                            pmos_b             1.00 
      764 xsa_logic_v5_3cap.xrsh6.xi1.xn1.
                                            nmos_b             1.00 
      765 xsa_logic_v5_3cap.xrsh6.xi42.xn1.
                                            nmos_b             1.00 
      766 xsa_logic_v5_3cap.xrsh6.xi42.xi9.
                                            nmos_b             1.00 
      767 xsa_logic_v5_3cap.xrsh6.xi42.xp1.
                                            pmos_b             1.00 
      768 xsa_logic_v5_3cap.xrsh6.xi42.xi10.
                                            pmos_b             1.00 
      769 xsa_logic_v5_3cap.xrsh6.xi43.xn1.
                                            nmos_b             1.00 
      770 xsa_logic_v5_3cap.xrsh6.xi43.xi9.
                                            nmos_b             1.00 
      771 xsa_logic_v5_3cap.xrsh6.xi43.xp1.
                                            pmos_b             1.00 
      772 xsa_logic_v5_3cap.xrsh6.xi43.xi10.
                                            pmos_b             1.00 
      773 xsa_logic_v5_3cap.xrsh6.xi31.xn1.
                                            nmos_b             1.00 
      774 xsa_logic_v5_3cap.xrsh6.xi31.xi9.
                                            nmos_b             1.00 
      775 xsa_logic_v5_3cap.xrsh6.xi31.xp1.
                                            pmos_b             1.00 
      776 xsa_logic_v5_3cap.xrsh6.xi31.xi10.
                                            pmos_b             1.00 
      777 xsa_logic_v5_3cap.xrsh6.xi37.xn1.
                                            nmos_b             1.00 
      778 xsa_logic_v5_3cap.xrsh6.xi37.xi9.
                                            nmos_b             1.00 
      779 xsa_logic_v5_3cap.xrsh6.xi37.xp1.
                                            pmos_b             1.00 
      780 xsa_logic_v5_3cap.xrsh6.xi37.xi10.
                                            pmos_b             1.00 
      781 xsa_logic_v5_3cap.xrsh7.xi1.xp1.
                                            pmos_b             1.00 
      782 xsa_logic_v5_3cap.xrsh7.xi1.xn1.
                                            nmos_b             1.00 
      783 xsa_logic_v5_3cap.xrsh7.xi42.xn1.
                                            nmos_b             1.00 
      784 xsa_logic_v5_3cap.xrsh7.xi42.xi9.
                                            nmos_b             1.00 
      785 xsa_logic_v5_3cap.xrsh7.xi42.xp1.
                                            pmos_b             1.00 
      786 xsa_logic_v5_3cap.xrsh7.xi42.xi10.
                                            pmos_b             1.00 
      787 xsa_logic_v5_3cap.xrsh7.xi43.xn1.
                                            nmos_b             1.00 
      788 xsa_logic_v5_3cap.xrsh7.xi43.xi9.
                                            nmos_b             1.00 
      789 xsa_logic_v5_3cap.xrsh7.xi43.xp1.
                                            pmos_b             1.00 
      790 xsa_logic_v5_3cap.xrsh7.xi43.xi10.
                                            pmos_b             1.00 
      791 xsa_logic_v5_3cap.xrsh7.xi31.xn1.
                                            nmos_b             1.00 
      792 xsa_logic_v5_3cap.xrsh7.xi31.xi9.
                                            nmos_b             1.00 
      793 xsa_logic_v5_3cap.xrsh7.xi31.xp1.
                                            pmos_b             1.00 
      794 xsa_logic_v5_3cap.xrsh7.xi31.xi10.
                                            pmos_b             1.00 
      795 xsa_logic_v5_3cap.xrsh7.xi37.xn1.
                                            nmos_b             1.00 
      796 xsa_logic_v5_3cap.xrsh7.xi37.xi9.
                                            nmos_b             1.00 
      797 xsa_logic_v5_3cap.xrsh7.xi37.xp1.
                                            pmos_b             1.00 
      798 xsa_logic_v5_3cap.xrsh7.xi37.xi10.
                                            pmos_b             1.00 
  **info** (bhv5.sp:31) DC voltage reset to initial transient source value in source 0:vclk. new dc=0.0000D+00
  **warning** (bhv5.sp:61) Unable to find referenced node cmp_diff; Output variable ignored. Specify a valid node.
  
  **warning** No connections on node iref; Node ignored.

  **warning** the following singular supplies were terminated to 1 meg resistor 
          supply       node1            node2
(bhv5.sp:25)vagnd                   0:agnd             defined in subckt 0                     0:0                defined in subckt 0               
(bhv5.sp:23)vavdd                   0:avdd             defined in subckt 0                     0:0                defined in subckt 0               
(bhv5.sp:28)vdsub                   0:dsub             defined in subckt 0                     0:0                defined in subckt 0               
(../et710/ece627_bhv_ckt.cir:65)e1                     17:vcmi             defined in subckt fdopb                 0:0                defined in subckt 0               
      

Element variations(Local):   element              parameter
 *****************************************************************
 ******  option summary
 ******
 runlvl  = 5         bypass  = 2.0000    
             
 Summary of Linear Res Distribution Info
 ---------------------------------------
 |Range          |Total     |Percent(%)|
 |---------------+----------+----------|
 |1e+00  ~  1e+03|90        |6.6914    |
 |1e+05  ~  1e+06|6         |0.4461    |
 |1e+08  ~  1e+09|1         |0.0743    |
 |1e+11  ~  1e+12|1248      |92.7881   |
 ---------------------------------------
              
             
 Summary of Linear Cap Distribution Info
 ---------------------------------------
 |Range          |Total     |Percent(%)|
 |---------------+----------+----------|
 |1e-17  ~  1e-16|624       |80.5161   |
 |1e-15  ~  1e-14|39        |5.0323    |
 |1e-14  ~  1e-13|112       |14.4516   |
 ---------------------------------------
              
             
 Summary of Detailed RC Type Statistics
 -----------------------------
 |Element Type    |Number    |
 |----------------+----------|
 |Constant Res    |1341      |
 |Other Linear Res|4         |
 |                |          |
 |Constant Cap    |775       |
 -----------------------------
              
  Opening plot unit= 15
 file=bhv5.pa0

 **info** dc convergence successful at Newton-Raphson method 
 ******  
 * idc_mod simulation

 ****** operating point information tnom=  25.000 temp=  60.000 ******
 ****** operating point status is all       simulation time is     0.     
      node    =voltage        node    =voltage        node    =voltage

 +  0:agnd    =   0.        0:avdd    =   1.0000    0:clk     =   0.     
 +  0:clk_b   =   1.0000    0:cmp_inn = 500.0000m   0:cmp_inp = 500.0000m
 +  0:cmp_out = 170.0000f   0:d_0     =   1.0000    0:d_1     =   1.0000 
 +  0:d_2     =   1.0000    0:d_3     =   1.0000    0:d_4     =   1.0000 
 +  0:d_5     =   1.0000    0:d_6     =   1.0000    0:d_7     =   1.0000 
 +  0:d_cur   =   1.8190p   0:dgnd    =   0.        0:dsub    =   0.     
 +  0:dvdd    =   1.0000    0:iref    =   0.        0:net0111 = 249.8755u
 +  0:net0115 = 249.8755u   0:net0171_=  10.0000f   0:net0171_=  10.0000f
 +  0:net0171_=  10.0000f   0:net0171_=  10.0000f   0:net0171_=  10.0000f
 +  0:net0171_=  10.0000f   0:net0171_=  10.0000f   0:net0171_=  10.0000f
 +  0:net0192 =   1.0000    0:net0214 =   1.0000    0:net0227 =  10.0000f
 +  0:net033  = 399.5066u   0:net039  = 499.7001u   0:net051  = 266.6605u
 +  0:net057  = 133.1970n   0:net063  = 249.8755u   0:net081  = 249.8755u
 +  0:net23   =   1.0000    0:pback   =  10.0000f   0:pback_b =   1.0000 
 +  0:pdac    =  10.0000f   0:pdac_b  =   1.0000    0:pdn     =   0.     
 +  0:psamp   =   0.        0:psamp_b =   1.0000    0:psamph  =  10.0000f
 +  0:psamph_b=   1.0000    0:sa_0    =   1.0000    0:sa_1    =   1.0000 
 +  0:sa_2    =   1.0000    0:sa_3    =   1.0000    0:sa_4    =   1.0000 
 +  0:sa_5    =   1.0000    0:sa_6    =   1.0000    0:sa_7    =   1.0000 
 +  0:sa_b_0  =  10.0000f   0:sa_b_1  =  10.0000f   0:sa_b_2  =  10.0000f
 +  0:sa_b_3  =  10.0000f   0:sa_b_4  =  10.0000f   0:sa_b_5  =  10.0000f
 +  0:sa_b_6  =  10.0000f   0:sa_b_7  =  10.0000f   0:vcm     = 500.0000m
 +  0:vcm1    = 500.0000m   0:vinn    = 300.7812m   0:vinp    = 699.2187m
 +  0:vrefn   =   0.        0:vrefp   =   1.0000    1:vout1   =   1.8190p
 +  2:net16   =   1.0000   17:vcmi    = 500.0000m  18:net0150 =   1.0000 
 + 18:net0158 =   1.0000   18:net0166 =   1.0000   18:net0174 =   1.0000 
 + 18:net0182 =   1.0000   18:net0190 =   1.0000   18:net0198 =   1.0000 
 + 18:net0206 =   1.0000   18:net0214 =   1.0000   18:net060  =  20.0000f
 + 18:net089  =   1.0000   18:q0      =  10.0000f  18:q00     =  10.0000f
 + 18:q1      =  10.0000f  18:q2      =  10.0000f  18:q3      =  10.0000f
 + 18:q4      =  10.0000f  18:q5      =  10.0000f  18:q6      =  10.0000f
 + 18:q7      =  10.0000f  19:clkb    =   1.0000   19:dff1    =   1.0000 
 + 19:dff2    =  10.0000f  19:dff3    =  10.0000f  19:net41   =   1.0000 
 + 19:net54   =   1.0000   19:net69   =  10.0000f  20:clkb    =   1.0000 
 + 20:dff1    =   1.0000   20:dff2    =  10.0000f  20:dff3    =  10.0000f
 + 20:net41   =   1.0000   20:net54   =   1.0000   20:net69   =  10.0000f
 + 21:clkb    =   1.0000   21:dff1    =   1.0000   21:dff2    =  10.0000f
 + 21:dff3    =  10.0000f  21:net41   =   1.0000   21:net54   =   1.0000 
 + 21:net69   =  10.0000f  22:clkb    =   1.0000   22:dff1    =   1.0000 
 + 22:dff2    =  10.0000f  22:dff3    =  10.0000f  22:net41   =   1.0000 
 + 22:net54   =   1.0000   22:net69   =  10.0000f  23:clkb    =   1.0000 
 + 23:dff1    =   1.0000   23:dff2    =  10.0000f  23:dff3    =  10.0000f
 + 23:net41   =   1.0000   23:net54   =   1.0000   23:net69   =  10.0000f
 + 24:clkb    =   1.0000   24:dff1    =   1.0000   24:dff2    =  10.0000f
 + 24:dff3    =  10.0000f  24:net41   =   1.0000   24:net54   =   1.0000 
 + 24:net69   =  10.0000f  25:clkb    =   1.0000   25:dff1    =   1.0000 
 + 25:dff2    =  10.0000f  25:dff3    =  10.0000f  25:net41   =   1.0000 
 + 25:net54   =   1.0000   25:net69   =  10.0000f  26:clkb    =   1.0000 
 + 26:dff1    =   1.0000   26:dff2    =  10.0000f  26:dff3    =  10.0000f
 + 26:net41   =   1.0000   26:net54   =   1.0000   26:net69   =  10.0000f
 + 27:net8    = 499.5005u  28:net8    =  10.0000f  29:net8    =  10.0000f
 + 30:net23   =   1.0000   31:net23   =  10.0000f  32:net23   =  10.0000f
 + 33:net23   =   1.0000   34:net23   =  10.0000f  35:net23   =   1.0000 
 + 36:net23   =  10.0000f  37:net23   =   1.0000   38:net017  =   1.0000 
 + 38:net22   = 170.0000f  38:net8    =   1.0000   43:clkb    =  10.0000f
 + 43:dff1    =  10.0000f  43:dff2    =   1.0000   43:dff3    =   1.0000 
 + 43:net41   =  10.0000f  43:net54   =  10.0000f  43:net69   =   1.0000 
 + 44:clkb    =  10.0000f  44:dff1    =   1.0000   44:dff2    =  10.0000f
 + 44:dff3    =  10.0000f  44:net41   =   1.0000   44:net54   =   1.0000 
 + 44:net69   =  10.0000f  45:clkb    =  10.0000f  45:dff1    =   1.0000 
 + 45:dff2    =  10.0000f  45:dff3    =  10.0000f  45:net41   =   1.0000 
 + 45:net54   =   1.0000   45:net69   =  10.0000f  46:clkb    =  10.0000f
 + 46:dff1    =   1.0000   46:dff2    =  10.0000f  46:dff3    =  10.0000f
 + 46:net41   =   1.0000   46:net54   =   1.0000   46:net69   =  10.0000f
 + 47:clkb    =   1.0000   47:dff1    =   0.       47:dff2    =   1.0000 
 + 47:dff3    =  30.0000f  47:net41   =  10.0000f  47:net54   =   1.0000 
 + 47:net69   =   1.0000   48:clkb    =  10.0000f  48:dff1    =   1.0000 
 + 48:dff2    =  10.0000f  48:dff3    =  10.0000f  48:net41   =   1.0000 
 + 48:net54   =   1.0000   48:net69   =  10.0000f  49:clkb    =  10.0000f
 + 49:dff1    =   1.0000   49:dff2    =  10.0000f  49:dff3    =  10.0000f
 + 49:net41   =   1.0000   49:net54   =   1.0000   49:net69   =  10.0000f
 + 50:clkb    =  10.0000f  50:dff1    =  10.0000f  50:dff2    =   1.0000 
 + 50:dff3    =   1.0000   50:net41   =  10.0000f  50:net54   =  10.0000f
 + 50:net69   =   1.0000   51:clkb    =  10.0000f  51:dff1    =  10.0000f
 + 51:dff2    =   1.0000   51:dff3    =   1.0000   51:net41   =  10.0000f
 + 51:net54   =  10.0000f  51:net69   =   1.0000   52:clkb    =  10.0000f
 + 52:dff1    =  10.0000f  52:dff2    =   1.0000   52:dff3    =   1.0000 
 + 52:net41   =  10.0000f  52:net54   =  10.0000f  52:net69   =   1.0000 
 + 53:clkb    =  10.0000f  53:dff1    =  10.0000f  53:dff2    =   1.0000 
 + 53:dff3    =   1.0000   53:net41   =  10.0000f  53:net54   =  10.0000f
 + 53:net69   =   1.0000   54:clkb    =  10.0000f  54:dff1    =  10.0000f
 + 54:dff2    =   1.0000   54:dff3    =   1.0000   54:net41   =  10.0000f
 + 54:net54   =  10.0000f  54:net69   =   1.0000   55:clkb    =  10.0000f
 + 55:dff1    =   1.0000   55:dff2    =  10.0000f  55:dff3    =  10.0000f
 + 55:net41   =   1.0000   55:net54   =   1.0000   55:net69   =  10.0000f
 + 56:clkb    =  10.0000f  56:dff1    =  10.0000f  56:dff2    =   1.0000 
 + 56:dff3    =   1.0000   56:net41   =  10.0000f  56:net54   =  10.0000f
 + 56:net69   =   1.0000   57:clkb    =  10.0000f  57:dff1    =   1.0000 
 + 57:dff2    =  10.0000f  57:dff3    =  10.0000f  57:net41   =   1.0000 
 + 57:net54   =   1.0000   57:net69   =  10.0000f  58:clkb    =  10.0000f
[...]
                                                                                                                                                                                                                                                                                                                                                                                                                                                                                                                                                                                                                                                                                                                                                                                                                                                                                                                                                                                                                                                                                                                                                                                                                                                                                                                                                                                                                                                                                                                                                                                                                                                                                                                                                                                                                                                                                                                                                                                                                                                                                                                                                                                                                                                                                                                                                                                                                                                                                                                                                                                                                                                                                                                                                                                                                                                                                                                                                                                                                                                                                                                                                                                                                                                                                                                                                                                                                                                                                                                                                                                                                                                                                                                                                                                                                                                                                                                                                                                                                                                                                                                                                                                                                                                                                                                                                                                                                                                                                                                                                                                                                                                                                                                                                                                                                                                                                                                                                                                                                                                                                                                                                                                                                                                                                                                                                                                                                                                                                                                                                                                                                                                                                                                                                                                                                                                                                                                                                                                                                                                                                                                                                                                                                                                                                                                                                                                                                                                                                                                                                                                                                                                                                                                                                                                                                                                                                                                                                                                                                                                                                                                                                                                                                                                                                                                                                                                                                                                                                                                                                                                                                                                                                                                                                                                                                                                                                                                                                                                                                                                                                                                                                                                                                                                                                                                                                                                                                                                                                                                                                                                                                                                                                                                                                                                                                                                                                                                                                                                                                                                                                                                                                                                                                                                                                                                                                                                                                                                                                                                                                                                                                                                                                                                                                                                                                                                                                                                                                                                                                                                                                                                                                                                                                                                                                                                                                                                                                                                                                                                                                                                                                                                                                                                                                                                                                                                                                                                                                                                                                                                                                                                                                                                                                                                                                                                                                                                                                                                                                                                                                                                                                                                                                                                                                                                                                                                                                                                                                                                                                                                                                                                                                                                                                                                                                                                                                                                                                                                                                                                                                                                                                                                                                                                                                                                                                                                                                                                                                                                                                                                                                                                                                                                                                                                                                                                                                                                                                                                                                                                                                                                                                                                                                                                                                                                                                                                                                                                                                                                                                                                                                                                                                                                                                                                                                                                                                                                                                                                                                                                                                                                                                                                                                                                                                                                                                                                                                                                                                                                                                                                                                                                                                                                                                                                                                                                                                                                                                                                                                                                                                                                                                                                                                                                                                                                                                                                                                                                                                                                                                                                                                                                                                                                                                                                                                                                                                                                                                                                                                                                                                                                                                                                                                                                                                                                                                                                                                                                                                                                                                                                                                                                                                                                                                                                                                                                                                                                                                                                                                                                                                                                                                                                                                                                                                                                                                                                                                                                                                                                                                                                                                                                                                                                                                                                                                                                                                                                                                                                                                                                                                                                                                                                                                                                                                                                       
          ***** job concluded
 ******  
 * idc_mod simulation

 ****** job statistics summary tnom=  25.000 temp=  60.000 ******
  
 ******  Machine Information  ******
 CPU:
 model name	: Intel(R) Xeon(R) Silver 4110 CPU @ 2.10GHz
 cpu MHz	: 2100.000
  
 OS:
 Linux version 3.10.0-957.el7.x86_64 (mockbuild@kbuilder.bsys.centos.org) (gcc version 4.8.5 20150623 (Red Hat 4.8.5-36) (GCC) ) #1 SMP Thu Nov 8 23:39:32 UTC 2018


  ******  HSPICE Threads Information  ******

  Command Line Threads Count :     1
  Available CPU Count        :    32
  Actual Threads Count       :     1


  ******  Circuit Statistics  ******
  # nodes       =     610 # elements   =    3999
  # resistors   =    1957 # capacitors =    1126 # inductors   =       0
  # mutual_inds =       0 # vccs       =     902 # vcvs        =       2
  # cccs        =       0 # ccvs       =       0 # volt_srcs   =      12
  # curr_srcs   =       0 # diodes     =       0 # bjts        =       0
  # jfets       =       0 # mosfets    =       0 # U elements  =       0
  # T elements  =       0 # W elements =       0 # B elements  =       0
  # S elements  =       0 # P elements =       0 # va device   =       0
  # vector_srcs =       0 # N elements =       0


  ******  Runtime Statistics (seconds)  ******

  analysis           time    # points   tot. iter  conv.iter
  op point           0.03           1          11
  transient       1356.92         101     3454326     1402751 rev=     84842
  readin             0.02
  errchk             0.02
  setup              0.00
  output             0.00


           peak memory used        322.40 megabytes
           total cpu time         1357.00 seconds
           total elapsed time     1370.27 seconds
           job started at     00:46:25 11/26/2019
           job ended   at     01:09:16 11/26/2019



>info:         ***** hspice job concluded
 lic: Release hspice token(s) 
 lic: total license checkout elapse time:        4.90(s)
