Using: /usr/cad/synopsys/hspice/cur/hspice/linux64/hspice bhv5.sp
 ****** HSPICE -- O-2018.09 linux64 (Aug 26 2018) ******                        
  Copyright (c) 1986 - 2019 by Synopsys, Inc. All Rights Reserved.              
  This software and the associated documentation are proprietary
  to Synopsys, Inc. This software may only be used in accordance
  with the terms and conditions of a written license agreement with
  Synopsys, Inc. All other use, reproduction, or distribution of
  this software is strictly prohibited.
  Input File: bhv5.sp                                                           
  Command line options: /usr/cad/synopsys/hspice/cur/hspice/linux64/hspice bhv5.sp
 lic:  
 lic: FLEXlm: SDK_11.6.9.6 
 lic: USER:   ychuang              HOSTNAME: adc 
 lic: HOSTID: "b026281535a3"       PID:      19244 
 lic: Using FLEXlm license file: 
 lic: 26585@lsnctu 
 lic: Checkout 1 hspice 
 lic: License/Maintenance for hspice will expire on 14-may-2022/2018.09 
 lic: 52(in_use)/190(total) FLOATING license(s) on SERVER 26585@lsnctu 
 lic:   

 **warning** RUNLVL=0 option detected. RUNLVL=0 is automatically switched to RUNLVL=5 from Release H-2013.03-SP1. RUNLVL=0 is a legacy setting with poor runtime performance.


1****** HSPICE -- O-2018.09 linux64 (Aug 26 2018) ******                        
 ******  
 * idc_mod simulation

 ****** circuit name directory
 circuit number to circuit name directory
   number circuitname                     definition         multiplier
        0 main circuit
        1 xsa_logic.                      sa_logic_8bit_v5_3cap
                                                                 1.00 
        2 xi46.                           vcvs_cmp           1.00 
        3 xi47.                           nor2_bhv           1.00 
        4 xi40.                           nor2_bhv           1.00 
        5 xi61.                           tgb                1.00 
        6 xi62.                           tgb                1.00 
        7 xi54.                           tgb                1.00 
        8 xi26.                           tgb                1.00 
        9 xi33.                           tgb                1.00 
       10 xi32.                           tgb                1.00 
       11 xi28.                           tgb                1.00 
       12 xi35.                           tgb                1.00 
       13 xi34.                           tgb                1.00 
       14 xi36.                           tgb                1.00 
       15 xi29.                           tgb                1.00 
       16 xi31.                           tgb                1.00 
       17 xi53.                           tgb                1.00 
       18 xi25.                           tgb                1.00 
       19 xi24.                           tgb                1.00 
       20 xswvcmp.                        tgb                1.00 
       21 xi30.                           tgb                1.00 
       22 xi27.                           tgb                1.00 
       23 xop.                            fdopb              1.00 
       24 xdffout_7.                      dff_set_rst_schematic
                                                                 1.00 
       25 xdffout_6.                      dff_set_rst_schematic
                                                                 1.00 
       26 xdffout_5.                      dff_set_rst_schematic
                                                                 1.00 
       27 xdffout_4.                      dff_set_rst_schematic
                                                                 1.00 
       28 xdffout_3.                      dff_set_rst_schematic
                                                                 1.00 
       29 xdffout_2.                      dff_set_rst_schematic
                                                                 1.00 
       30 xdffout_1.                      dff_set_rst_schematic
                                                                 1.00 
       31 xdffout_0.                      dff_set_rst_schematic
                                                                 1.00 
       32 xi42.                           nand2_bhv          1.00 
       33 xi59.                           nand2_bhv          1.00 
       34 xi37.                           nand2_bhv          1.00 
       35 xi55.                           nand2_bhv          1.00 
       36 xi7.                            nand2_bhv          1.00 
       37 xi45.                           inv_bhv            1.00 
       38 xi63.                           inv_bhv            1.00 
       39 xi5.                            inv_bhv            1.00 
       40 xi43.                           inv_bhv            1.00 
       41 xi44.                           inv_bhv            1.00 
       42 xi58.                           inv_bhv            1.00 
       43 xi60.                           inv_bhv            1.00 
       44 xi41.                           inv_bhv            1.00 
       45 xi57.                           inv_bhv            1.00 
       46 xi8.                            inv_bhv            1.00 
       47 xi6.                            inv_bhv            1.00 
       48 xi49.                           dlatch             1.00 
       49 xcmplatch.                      dlatch             1.00 
       50 xsa_logic.xrsh0.                dff_set_rst        1.00 
       51 xsa_logic.xrsh3.                dff_set_rst        1.00 
       52 xsa_logic.xrsh2.                dff_set_rst        1.00 
       53 xsa_logic.xrsh1.                dff_set_rst        1.00 
       54 xsa_logic.xrsh4.                dff_set_rst        1.00 
       55 xsa_logic.xrsh5.                dff_set_rst        1.00 
       56 xsa_logic.xrsh6.                dff_set_rst        1.00 
       57 xi47.xn1.                       nmos_b             1.00 
       58 xi47.xi9.                       nmos_b             1.00 
       59 xi47.xp1.                       pmos_b             1.00 
       60 xi47.xi10.                      pmos_b             1.00 
       61 xi40.xn1.                       nmos_b             1.00 
       62 xi40.xi9.                       nmos_b             1.00 
       63 xi40.xp1.                       pmos_b             1.00 
       64 xi40.xi10.                      pmos_b             1.00 
       65 xdffout_7.xi1.                  inv_bhv            1.00 
       66 xdffout_7.xi40.                 tgb                1.00 
       67 xdffout_7.xi34.                 tgb                1.00 
       68 xdffout_7.xi41.                 tgb                1.00 
       69 xdffout_7.xsw1.                 tgb                1.00 
       70 xdffout_7.xi42.                 nor2_bhv           1.00 
       71 xdffout_7.xi43.                 nor2_bhv           1.00 
       72 xdffout_7.xi31.                 nor2_bhv           1.00 
       73 xdffout_7.xi37.                 nor2_bhv           1.00 
       74 xdffout_6.xi1.                  inv_bhv            1.00 
       75 xdffout_6.xi40.                 tgb                1.00 
       76 xdffout_6.xi34.                 tgb                1.00 
       77 xdffout_6.xi41.                 tgb                1.00 
       78 xdffout_6.xsw1.                 tgb                1.00 
       79 xdffout_6.xi42.                 nor2_bhv           1.00 
       80 xdffout_6.xi43.                 nor2_bhv           1.00 
       81 xdffout_6.xi31.                 nor2_bhv           1.00 
       82 xdffout_6.xi37.                 nor2_bhv           1.00 
       83 xdffout_5.xi1.                  inv_bhv            1.00 
       84 xdffout_5.xi40.                 tgb                1.00 
       85 xdffout_5.xi34.                 tgb                1.00 
       86 xdffout_5.xi41.                 tgb                1.00 
       87 xdffout_5.xsw1.                 tgb                1.00 
       88 xdffout_5.xi42.                 nor2_bhv           1.00 
       89 xdffout_5.xi43.                 nor2_bhv           1.00 
       90 xdffout_5.xi31.                 nor2_bhv           1.00 
       91 xdffout_5.xi37.                 nor2_bhv           1.00 
       92 xdffout_4.xi1.                  inv_bhv            1.00 
       93 xdffout_4.xi40.                 tgb                1.00 
       94 xdffout_4.xi34.                 tgb                1.00 
       95 xdffout_4.xi41.                 tgb                1.00 
       96 xdffout_4.xsw1.                 tgb                1.00 
       97 xdffout_4.xi42.                 nor2_bhv           1.00 
       98 xdffout_4.xi43.                 nor2_bhv           1.00 
       99 xdffout_4.xi31.                 nor2_bhv           1.00 
      100 xdffout_4.xi37.                 nor2_bhv           1.00 
      101 xdffout_3.xi1.                  inv_bhv            1.00 
      102 xdffout_3.xi40.                 tgb                1.00 
      103 xdffout_3.xi34.                 tgb                1.00 
      104 xdffout_3.xi41.                 tgb                1.00 
      105 xdffout_3.xsw1.                 tgb                1.00 
      106 xdffout_3.xi42.                 nor2_bhv           1.00 
      107 xdffout_3.xi43.                 nor2_bhv           1.00 
      108 xdffout_3.xi31.                 nor2_bhv           1.00 
      109 xdffout_3.xi37.                 nor2_bhv           1.00 
      110 xdffout_2.xi1.                  inv_bhv            1.00 
      111 xdffout_2.xi40.                 tgb                1.00 
      112 xdffout_2.xi34.                 tgb                1.00 
      113 xdffout_2.xi41.                 tgb                1.00 
      114 xdffout_2.xsw1.                 tgb                1.00 
      115 xdffout_2.xi42.                 nor2_bhv           1.00 
      116 xdffout_2.xi43.                 nor2_bhv           1.00 
      117 xdffout_2.xi31.                 nor2_bhv           1.00 
      118 xdffout_2.xi37.                 nor2_bhv           1.00 
      119 xdffout_1.xi1.                  inv_bhv            1.00 
      120 xdffout_1.xi40.                 tgb                1.00 
      121 xdffout_1.xi34.                 tgb                1.00 
      122 xdffout_1.xi41.                 tgb                1.00 
      123 xdffout_1.xsw1.                 tgb                1.00 
      124 xdffout_1.xi42.                 nor2_bhv           1.00 
      125 xdffout_1.xi43.                 nor2_bhv           1.00 
      126 xdffout_1.xi31.                 nor2_bhv           1.00 
      127 xdffout_1.xi37.                 nor2_bhv           1.00 
      128 xdffout_0.xi1.                  inv_bhv            1.00 
      129 xdffout_0.xi40.                 tgb                1.00 
      130 xdffout_0.xi34.                 tgb                1.00 
      131 xdffout_0.xi41.                 tgb                1.00 
      132 xdffout_0.xsw1.                 tgb                1.00 
      133 xdffout_0.xi42.                 nor2_bhv           1.00 
      134 xdffout_0.xi43.                 nor2_bhv           1.00 
      135 xdffout_0.xi31.                 nor2_bhv           1.00 
      136 xdffout_0.xi37.                 nor2_bhv           1.00 
      137 xi42.xn1.                       nmos_b             1.00 
      138 xi42.xi9.                       nmos_b             1.00 
      139 xi42.xp1.                       pmos_b             1.00 
      140 xi42.xi10.                      pmos_b             1.00 
      141 xi59.xn1.                       nmos_b             1.00 
      142 xi59.xi9.                       nmos_b             1.00 
      143 xi59.xp1.                       pmos_b             1.00 
      144 xi59.xi10.                      pmos_b             1.00 
      145 xi37.xn1.                       nmos_b             1.00 
      146 xi37.xi9.                       nmos_b             1.00 
      147 xi37.xp1.                       pmos_b             1.00 
      148 xi37.xi10.                      pmos_b             1.00 
      149 xi55.xn1.                       nmos_b             1.00 
      150 xi55.xi9.                       nmos_b             1.00 
      151 xi55.xp1.                       pmos_b             1.00 
      152 xi55.xi10.                      pmos_b             1.00 
      153 xi7.xn1.                        nmos_b             1.00 
      154 xi7.xi9.                        nmos_b             1.00 
      155 xi7.xp1.                        pmos_b             1.00 
      156 xi7.xi10.                       pmos_b             1.00 
      157 xi45.xp1.                       pmos_b             1.00 
      158 xi45.xn1.                       nmos_b             1.00 
      159 xi63.xp1.                       pmos_b             1.00 
      160 xi63.xn1.                       nmos_b             1.00 
      161 xi5.xp1.                        pmos_b             1.00 
      162 xi5.xn1.                        nmos_b             1.00 
      163 xi43.xp1.                       pmos_b             1.00 
      164 xi43.xn1.                       nmos_b             1.00 
      165 xi44.xp1.                       pmos_b             1.00 
      166 xi44.xn1.                       nmos_b             1.00 
      167 xi58.xp1.                       pmos_b             1.00 
      168 xi58.xn1.                       nmos_b             1.00 
      169 xi60.xp1.                       pmos_b             1.00 
      170 xi60.xn1.                       nmos_b             1.00 
      171 xi41.xp1.                       pmos_b             1.00 
      172 xi41.xn1.                       nmos_b             1.00 
      173 xi57.xp1.                       pmos_b             1.00 
      174 xi57.xn1.                       nmos_b             1.00 
      175 xi8.xp1.                        pmos_b             1.00 
      176 xi8.xn1.                        nmos_b             1.00 
      177 xi6.xp1.                        pmos_b             1.00 
      178 xi6.xn1.                        nmos_b             1.00 
      179 xi49.xi2.                       inv_bhv            1.00 
      180 xi49.xi1.                       inv_bhv            1.00 
      181 xi49.xi29.                      tgb                1.00 
      182 xi49.xsw1.                      tgb                1.00 
      183 xcmplatch.xi2.                  inv_bhv            1.00 
      184 xcmplatch.xi1.                  inv_bhv            1.00 
      185 xcmplatch.xi29.                 tgb                1.00 
      186 xcmplatch.xsw1.                 tgb                1.00 
      187 xsa_logic.xrsh0.xi1.            inv_bhv            1.00 
      188 xsa_logic.xrsh0.xi40.           tgb                1.00 
      189 xsa_logic.xrsh0.xi34.           tgb                1.00 
      190 xsa_logic.xrsh0.xi41.           tgb                1.00 
      191 xsa_logic.xrsh0.xsw1.           tgb                1.00 
      192 xsa_logic.xrsh0.xi42.           nor2_bhv           1.00 
      193 xsa_logic.xrsh0.xi43.           nor2_bhv           1.00 
      194 xsa_logic.xrsh0.xi31.           nor2_bhv           1.00 
      195 xsa_logic.xrsh0.xi37.           nor2_bhv           1.00 
      196 xsa_logic.xrsh3.xi1.            inv_bhv            1.00 
      197 xsa_logic.xrsh3.xi40.           tgb                1.00 
      198 xsa_logic.xrsh3.xi34.           tgb                1.00 
      199 xsa_logic.xrsh3.xi41.           tgb                1.00 
      200 xsa_logic.xrsh3.xsw1.           tgb                1.00 
      201 xsa_logic.xrsh3.xi42.           nor2_bhv           1.00 
      202 xsa_logic.xrsh3.xi43.           nor2_bhv           1.00 
      203 xsa_logic.xrsh3.xi31.           nor2_bhv           1.00 
      204 xsa_logic.xrsh3.xi37.           nor2_bhv           1.00 
      205 xsa_logic.xrsh2.xi1.            inv_bhv            1.00 
      206 xsa_logic.xrsh2.xi40.           tgb                1.00 
      207 xsa_logic.xrsh2.xi34.           tgb                1.00 
      208 xsa_logic.xrsh2.xi41.           tgb                1.00 
      209 xsa_logic.xrsh2.xsw1.           tgb                1.00 
      210 xsa_logic.xrsh2.xi42.           nor2_bhv           1.00 
      211 xsa_logic.xrsh2.xi43.           nor2_bhv           1.00 
      212 xsa_logic.xrsh2.xi31.           nor2_bhv           1.00 
      213 xsa_logic.xrsh2.xi37.           nor2_bhv           1.00 
      214 xsa_logic.xrsh1.xi1.            inv_bhv            1.00 
      215 xsa_logic.xrsh1.xi40.           tgb                1.00 
      216 xsa_logic.xrsh1.xi34.           tgb                1.00 
      217 xsa_logic.xrsh1.xi41.           tgb                1.00 
      218 xsa_logic.xrsh1.xsw1.           tgb                1.00 
      219 xsa_logic.xrsh1.xi42.           nor2_bhv           1.00 
      220 xsa_logic.xrsh1.xi43.           nor2_bhv           1.00 
      221 xsa_logic.xrsh1.xi31.           nor2_bhv           1.00 
      222 xsa_logic.xrsh1.xi37.           nor2_bhv           1.00 
      223 xsa_logic.xrsh4.xi1.            inv_bhv            1.00 
      224 xsa_logic.xrsh4.xi40.           tgb                1.00 
      225 xsa_logic.xrsh4.xi34.           tgb                1.00 
      226 xsa_logic.xrsh4.xi41.           tgb                1.00 
      227 xsa_logic.xrsh4.xsw1.           tgb                1.00 
      228 xsa_logic.xrsh4.xi42.           nor2_bhv           1.00 
      229 xsa_logic.xrsh4.xi43.           nor2_bhv           1.00 
      230 xsa_logic.xrsh4.xi31.           nor2_bhv           1.00 
      231 xsa_logic.xrsh4.xi37.           nor2_bhv           1.00 
      232 xsa_logic.xrsh5.xi1.            inv_bhv            1.00 
      233 xsa_logic.xrsh5.xi40.           tgb                1.00 
      234 xsa_logic.xrsh5.xi34.           tgb                1.00 
      235 xsa_logic.xrsh5.xi41.           tgb                1.00 
      236 xsa_logic.xrsh5.xsw1.           tgb                1.00 
      237 xsa_logic.xrsh5.xi42.           nor2_bhv           1.00 
      238 xsa_logic.xrsh5.xi43.           nor2_bhv           1.00 
      239 xsa_logic.xrsh5.xi31.           nor2_bhv           1.00 
      240 xsa_logic.xrsh5.xi37.           nor2_bhv           1.00 
      241 xsa_logic.xrsh6.xi1.            inv_bhv            1.00 
      242 xsa_logic.xrsh6.xi40.           tgb                1.00 
      243 xsa_logic.xrsh6.xi34.           tgb                1.00 
      244 xsa_logic.xrsh6.xi41.           tgb                1.00 
      245 xsa_logic.xrsh6.xsw1.           tgb                1.00 
      246 xsa_logic.xrsh6.xi42.           nor2_bhv           1.00 
      247 xsa_logic.xrsh6.xi43.           nor2_bhv           1.00 
      248 xsa_logic.xrsh6.xi31.           nor2_bhv           1.00 
      249 xsa_logic.xrsh6.xi37.           nor2_bhv           1.00 
      250 xdffout_7.xi1.xp1.              pmos_b             1.00 
      251 xdffout_7.xi1.xn1.              nmos_b             1.00 
      252 xdffout_7.xi42.xn1.             nmos_b             1.00 
      253 xdffout_7.xi42.xi9.             nmos_b             1.00 
      254 xdffout_7.xi42.xp1.             pmos_b             1.00 
      255 xdffout_7.xi42.xi10.            pmos_b             1.00 
      256 xdffout_7.xi43.xn1.             nmos_b             1.00 
      257 xdffout_7.xi43.xi9.             nmos_b             1.00 
      258 xdffout_7.xi43.xp1.             pmos_b             1.00 
      259 xdffout_7.xi43.xi10.            pmos_b             1.00 
      260 xdffout_7.xi31.xn1.             nmos_b             1.00 
      261 xdffout_7.xi31.xi9.             nmos_b             1.00 
      262 xdffout_7.xi31.xp1.             pmos_b             1.00 
      263 xdffout_7.xi31.xi10.            pmos_b             1.00 
      264 xdffout_7.xi37.xn1.             nmos_b             1.00 
      265 xdffout_7.xi37.xi9.             nmos_b             1.00 
      266 xdffout_7.xi37.xp1.             pmos_b             1.00 
      267 xdffout_7.xi37.xi10.            pmos_b             1.00 
      268 xdffout_6.xi1.xp1.              pmos_b             1.00 
      269 xdffout_6.xi1.xn1.              nmos_b             1.00 
      270 xdffout_6.xi42.xn1.             nmos_b             1.00 
      271 xdffout_6.xi42.xi9.             nmos_b             1.00 
      272 xdffout_6.xi42.xp1.             pmos_b             1.00 
      273 xdffout_6.xi42.xi10.            pmos_b             1.00 
      274 xdffout_6.xi43.xn1.             nmos_b             1.00 
      275 xdffout_6.xi43.xi9.             nmos_b             1.00 
      276 xdffout_6.xi43.xp1.             pmos_b             1.00 
      277 xdffout_6.xi43.xi10.            pmos_b             1.00 
      278 xdffout_6.xi31.xn1.             nmos_b             1.00 
      279 xdffout_6.xi31.xi9.             nmos_b             1.00 
      280 xdffout_6.xi31.xp1.             pmos_b             1.00 
      281 xdffout_6.xi31.xi10.            pmos_b             1.00 
      282 xdffout_6.xi37.xn1.             nmos_b             1.00 
      283 xdffout_6.xi37.xi9.             nmos_b             1.00 
      284 xdffout_6.xi37.xp1.             pmos_b             1.00 
      285 xdffout_6.xi37.xi10.            pmos_b             1.00 
      286 xdffout_5.xi1.xp1.              pmos_b             1.00 
      287 xdffout_5.xi1.xn1.              nmos_b             1.00 
      288 xdffout_5.xi42.xn1.             nmos_b             1.00 
      289 xdffout_5.xi42.xi9.             nmos_b             1.00 
      290 xdffout_5.xi42.xp1.             pmos_b             1.00 
      291 xdffout_5.xi42.xi10.            pmos_b             1.00 
      292 xdffout_5.xi43.xn1.             nmos_b             1.00 
      293 xdffout_5.xi43.xi9.             nmos_b             1.00 
      294 xdffout_5.xi43.xp1.             pmos_b             1.00 
      295 xdffout_5.xi43.xi10.            pmos_b             1.00 
      296 xdffout_5.xi31.xn1.             nmos_b             1.00 
      297 xdffout_5.xi31.xi9.             nmos_b             1.00 
      298 xdffout_5.xi31.xp1.             pmos_b             1.00 
      299 xdffout_5.xi31.xi10.            pmos_b             1.00 
      300 xdffout_5.xi37.xn1.             nmos_b             1.00 
      301 xdffout_5.xi37.xi9.             nmos_b             1.00 
      302 xdffout_5.xi37.xp1.             pmos_b             1.00 
      303 xdffout_5.xi37.xi10.            pmos_b             1.00 
      304 xdffout_4.xi1.xp1.              pmos_b             1.00 
      305 xdffout_4.xi1.xn1.              nmos_b             1.00 
      306 xdffout_4.xi42.xn1.             nmos_b             1.00 
      307 xdffout_4.xi42.xi9.             nmos_b             1.00 
      308 xdffout_4.xi42.xp1.             pmos_b             1.00 
      309 xdffout_4.xi42.xi10.            pmos_b             1.00 
      310 xdffout_4.xi43.xn1.             nmos_b             1.00 
      311 xdffout_4.xi43.xi9.             nmos_b             1.00 
      312 xdffout_4.xi43.xp1.             pmos_b             1.00 
      313 xdffout_4.xi43.xi10.            pmos_b             1.00 
      314 xdffout_4.xi31.xn1.             nmos_b             1.00 
      315 xdffout_4.xi31.xi9.             nmos_b             1.00 
      316 xdffout_4.xi31.xp1.             pmos_b             1.00 
      317 xdffout_4.xi31.xi10.            pmos_b             1.00 
      318 xdffout_4.xi37.xn1.             nmos_b             1.00 
      319 xdffout_4.xi37.xi9.             nmos_b             1.00 
      320 xdffout_4.xi37.xp1.             pmos_b             1.00 
      321 xdffout_4.xi37.xi10.            pmos_b             1.00 
      322 xdffout_3.xi1.xp1.              pmos_b             1.00 
      323 xdffout_3.xi1.xn1.              nmos_b             1.00 
      324 xdffout_3.xi42.xn1.             nmos_b             1.00 
      325 xdffout_3.xi42.xi9.             nmos_b             1.00 
      326 xdffout_3.xi42.xp1.             pmos_b             1.00 
      327 xdffout_3.xi42.xi10.            pmos_b             1.00 
      328 xdffout_3.xi43.xn1.             nmos_b             1.00 
      329 xdffout_3.xi43.xi9.             nmos_b             1.00 
      330 xdffout_3.xi43.xp1.             pmos_b             1.00 
      331 xdffout_3.xi43.xi10.            pmos_b             1.00 
      332 xdffout_3.xi31.xn1.             nmos_b             1.00 
      333 xdffout_3.xi31.xi9.             nmos_b             1.00 
      334 xdffout_3.xi31.xp1.             pmos_b             1.00 
      335 xdffout_3.xi31.xi10.            pmos_b             1.00 
      336 xdffout_3.xi37.xn1.             nmos_b             1.00 
      337 xdffout_3.xi37.xi9.             nmos_b             1.00 
      338 xdffout_3.xi37.xp1.             pmos_b             1.00 
      339 xdffout_3.xi37.xi10.            pmos_b             1.00 
      340 xdffout_2.xi1.xp1.              pmos_b             1.00 
      341 xdffout_2.xi1.xn1.              nmos_b             1.00 
      342 xdffout_2.xi42.xn1.             nmos_b             1.00 
      343 xdffout_2.xi42.xi9.             nmos_b             1.00 
      344 xdffout_2.xi42.xp1.             pmos_b             1.00 
      345 xdffout_2.xi42.xi10.            pmos_b             1.00 
      346 xdffout_2.xi43.xn1.             nmos_b             1.00 
      347 xdffout_2.xi43.xi9.             nmos_b             1.00 
      348 xdffout_2.xi43.xp1.             pmos_b             1.00 
      349 xdffout_2.xi43.xi10.            pmos_b             1.00 
      350 xdffout_2.xi31.xn1.             nmos_b             1.00 
      351 xdffout_2.xi31.xi9.             nmos_b             1.00 
      352 xdffout_2.xi31.xp1.             pmos_b             1.00 
      353 xdffout_2.xi31.xi10.            pmos_b             1.00 
      354 xdffout_2.xi37.xn1.             nmos_b             1.00 
      355 xdffout_2.xi37.xi9.             nmos_b             1.00 
      356 xdffout_2.xi37.xp1.             pmos_b             1.00 
      357 xdffout_2.xi37.xi10.            pmos_b             1.00 
      358 xdffout_1.xi1.xp1.              pmos_b             1.00 
      359 xdffout_1.xi1.xn1.              nmos_b             1.00 
      360 xdffout_1.xi42.xn1.             nmos_b             1.00 
      361 xdffout_1.xi42.xi9.             nmos_b             1.00 
      362 xdffout_1.xi42.xp1.             pmos_b             1.00 
      363 xdffout_1.xi42.xi10.            pmos_b             1.00 
      364 xdffout_1.xi43.xn1.             nmos_b             1.00 
      365 xdffout_1.xi43.xi9.             nmos_b             1.00 
      366 xdffout_1.xi43.xp1.             pmos_b             1.00 
      367 xdffout_1.xi43.xi10.            pmos_b             1.00 
      368 xdffout_1.xi31.xn1.             nmos_b             1.00 
      369 xdffout_1.xi31.xi9.             nmos_b             1.00 
      370 xdffout_1.xi31.xp1.             pmos_b             1.00 
      371 xdffout_1.xi31.xi10.            pmos_b             1.00 
      372 xdffout_1.xi37.xn1.             nmos_b             1.00 
      373 xdffout_1.xi37.xi9.             nmos_b             1.00 
      374 xdffout_1.xi37.xp1.             pmos_b             1.00 
      375 xdffout_1.xi37.xi10.            pmos_b             1.00 
      376 xdffout_0.xi1.xp1.              pmos_b             1.00 
      377 xdffout_0.xi1.xn1.              nmos_b             1.00 
      378 xdffout_0.xi42.xn1.             nmos_b             1.00 
      379 xdffout_0.xi42.xi9.             nmos_b             1.00 
      380 xdffout_0.xi42.xp1.             pmos_b             1.00 
      381 xdffout_0.xi42.xi10.            pmos_b             1.00 
      382 xdffout_0.xi43.xn1.             nmos_b             1.00 
      383 xdffout_0.xi43.xi9.             nmos_b             1.00 
      384 xdffout_0.xi43.xp1.             pmos_b             1.00 
      385 xdffout_0.xi43.xi10.            pmos_b             1.00 
      386 xdffout_0.xi31.xn1.             nmos_b             1.00 
      387 xdffout_0.xi31.xi9.             nmos_b             1.00 
      388 xdffout_0.xi31.xp1.             pmos_b             1.00 
      389 xdffout_0.xi31.xi10.            pmos_b             1.00 
      390 xdffout_0.xi37.xn1.             nmos_b             1.00 
      391 xdffout_0.xi37.xi9.             nmos_b             1.00 
      392 xdffout_0.xi37.xp1.             pmos_b             1.00 
      393 xdffout_0.xi37.xi10.            pmos_b             1.00 
      394 xi49.xi2.xp1.                   pmos_b             1.00 
      395 xi49.xi2.xn1.                   nmos_b             1.00 
      396 xi49.xi1.xp1.                   pmos_b             1.00 
      397 xi49.xi1.xn1.                   nmos_b             1.00 
      398 xcmplatch.xi2.xp1.              pmos_b             1.00 
      399 xcmplatch.xi2.xn1.              nmos_b             1.00 
      400 xcmplatch.xi1.xp1.              pmos_b             1.00 
      401 xcmplatch.xi1.xn1.              nmos_b             1.00 
      402 xsa_logic.xrsh0.xi1.xp1.        pmos_b             1.00 
      403 xsa_logic.xrsh0.xi1.xn1.        nmos_b             1.00 
      404 xsa_logic.xrsh0.xi42.xn1.       nmos_b             1.00 
      405 xsa_logic.xrsh0.xi42.xi9.       nmos_b             1.00 
      406 xsa_logic.xrsh0.xi42.xp1.       pmos_b             1.00 
      407 xsa_logic.xrsh0.xi42.xi10.      pmos_b             1.00 
      408 xsa_logic.xrsh0.xi43.xn1.       nmos_b             1.00 
      409 xsa_logic.xrsh0.xi43.xi9.       nmos_b             1.00 
      410 xsa_logic.xrsh0.xi43.xp1.       pmos_b             1.00 
      411 xsa_logic.xrsh0.xi43.xi10.      pmos_b             1.00 
      412 xsa_logic.xrsh0.xi31.xn1.       nmos_b             1.00 
      413 xsa_logic.xrsh0.xi31.xi9.       nmos_b             1.00 
      414 xsa_logic.xrsh0.xi31.xp1.       pmos_b             1.00 
      415 xsa_logic.xrsh0.xi31.xi10.      pmos_b             1.00 
      416 xsa_logic.xrsh0.xi37.xn1.       nmos_b             1.00 
      417 xsa_logic.xrsh0.xi37.xi9.       nmos_b             1.00 
      418 xsa_logic.xrsh0.xi37.xp1.       pmos_b             1.00 
      419 xsa_logic.xrsh0.xi37.xi10.      pmos_b             1.00 
      420 xsa_logic.xrsh3.xi1.xp1.        pmos_b             1.00 
      421 xsa_logic.xrsh3.xi1.xn1.        nmos_b             1.00 
      422 xsa_logic.xrsh3.xi42.xn1.       nmos_b             1.00 
      423 xsa_logic.xrsh3.xi42.xi9.       nmos_b             1.00 
      424 xsa_logic.xrsh3.xi42.xp1.       pmos_b             1.00 
      425 xsa_logic.xrsh3.xi42.xi10.      pmos_b             1.00 
      426 xsa_logic.xrsh3.xi43.xn1.       nmos_b             1.00 
      427 xsa_logic.xrsh3.xi43.xi9.       nmos_b             1.00 
      428 xsa_logic.xrsh3.xi43.xp1.       pmos_b             1.00 
      429 xsa_logic.xrsh3.xi43.xi10.      pmos_b             1.00 
      430 xsa_logic.xrsh3.xi31.xn1.       nmos_b             1.00 
      431 xsa_logic.xrsh3.xi31.xi9.       nmos_b             1.00 
      432 xsa_logic.xrsh3.xi31.xp1.       pmos_b             1.00 
      433 xsa_logic.xrsh3.xi31.xi10.      pmos_b             1.00 
      434 xsa_logic.xrsh3.xi37.xn1.       nmos_b             1.00 
      435 xsa_logic.xrsh3.xi37.xi9.       nmos_b             1.00 
      436 xsa_logic.xrsh3.xi37.xp1.       pmos_b             1.00 
      437 xsa_logic.xrsh3.xi37.xi10.      pmos_b             1.00 
      438 xsa_logic.xrsh2.xi1.xp1.        pmos_b             1.00 
      439 xsa_logic.xrsh2.xi1.xn1.        nmos_b             1.00 
      440 xsa_logic.xrsh2.xi42.xn1.       nmos_b             1.00 
      441 xsa_logic.xrsh2.xi42.xi9.       nmos_b             1.00 
      442 xsa_logic.xrsh2.xi42.xp1.       pmos_b             1.00 
      443 xsa_logic.xrsh2.xi42.xi10.      pmos_b             1.00 
      444 xsa_logic.xrsh2.xi43.xn1.       nmos_b             1.00 
      445 xsa_logic.xrsh2.xi43.xi9.       nmos_b             1.00 
      446 xsa_logic.xrsh2.xi43.xp1.       pmos_b             1.00 
      447 xsa_logic.xrsh2.xi43.xi10.      pmos_b             1.00 
      448 xsa_logic.xrsh2.xi31.xn1.       nmos_b             1.00 
      449 xsa_logic.xrsh2.xi31.xi9.       nmos_b             1.00 
      450 xsa_logic.xrsh2.xi31.xp1.       pmos_b             1.00 
      451 xsa_logic.xrsh2.xi31.xi10.      pmos_b             1.00 
      452 xsa_logic.xrsh2.xi37.xn1.       nmos_b             1.00 
      453 xsa_logic.xrsh2.xi37.xi9.       nmos_b             1.00 
      454 xsa_logic.xrsh2.xi37.xp1.       pmos_b             1.00 
      455 xsa_logic.xrsh2.xi37.xi10.      pmos_b             1.00 
      456 xsa_logic.xrsh1.xi1.xp1.        pmos_b             1.00 
      457 xsa_logic.xrsh1.xi1.xn1.        nmos_b             1.00 
      458 xsa_logic.xrsh1.xi42.xn1.       nmos_b             1.00 
      459 xsa_logic.xrsh1.xi42.xi9.       nmos_b             1.00 
      460 xsa_logic.xrsh1.xi42.xp1.       pmos_b             1.00 
      461 xsa_logic.xrsh1.xi42.xi10.      pmos_b             1.00 
      462 xsa_logic.xrsh1.xi43.xn1.       nmos_b             1.00 
      463 xsa_logic.xrsh1.xi43.xi9.       nmos_b             1.00 
      464 xsa_logic.xrsh1.xi43.xp1.       pmos_b             1.00 
      465 xsa_logic.xrsh1.xi43.xi10.      pmos_b             1.00 
      466 xsa_logic.xrsh1.xi31.xn1.       nmos_b             1.00 
      467 xsa_logic.xrsh1.xi31.xi9.       nmos_b             1.00 
      468 xsa_logic.xrsh1.xi31.xp1.       pmos_b             1.00 
      469 xsa_logic.xrsh1.xi31.xi10.      pmos_b             1.00 
      470 xsa_logic.xrsh1.xi37.xn1.       nmos_b             1.00 
      471 xsa_logic.xrsh1.xi37.xi9.       nmos_b             1.00 
      472 xsa_logic.xrsh1.xi37.xp1.       pmos_b             1.00 
      473 xsa_logic.xrsh1.xi37.xi10.      pmos_b             1.00 
      474 xsa_logic.xrsh4.xi1.xp1.        pmos_b             1.00 
      475 xsa_logic.xrsh4.xi1.xn1.        nmos_b             1.00 
      476 xsa_logic.xrsh4.xi42.xn1.       nmos_b             1.00 
      477 xsa_logic.xrsh4.xi42.xi9.       nmos_b             1.00 
      478 xsa_logic.xrsh4.xi42.xp1.       pmos_b             1.00 
      479 xsa_logic.xrsh4.xi42.xi10.      pmos_b             1.00 
      480 xsa_logic.xrsh4.xi43.xn1.       nmos_b             1.00 
      481 xsa_logic.xrsh4.xi43.xi9.       nmos_b             1.00 
      482 xsa_logic.xrsh4.xi43.xp1.       pmos_b             1.00 
      483 xsa_logic.xrsh4.xi43.xi10.      pmos_b             1.00 
      484 xsa_logic.xrsh4.xi31.xn1.       nmos_b             1.00 
      485 xsa_logic.xrsh4.xi31.xi9.       nmos_b             1.00 
      486 xsa_logic.xrsh4.xi31.xp1.       pmos_b             1.00 
      487 xsa_logic.xrsh4.xi31.xi10.      pmos_b             1.00 
      488 xsa_logic.xrsh4.xi37.xn1.       nmos_b             1.00 
      489 xsa_logic.xrsh4.xi37.xi9.       nmos_b             1.00 
      490 xsa_logic.xrsh4.xi37.xp1.       pmos_b             1.00 
      491 xsa_logic.xrsh4.xi37.xi10.      pmos_b             1.00 
      492 xsa_logic.xrsh5.xi1.xp1.        pmos_b             1.00 
      493 xsa_logic.xrsh5.xi1.xn1.        nmos_b             1.00 
      494 xsa_logic.xrsh5.xi42.xn1.       nmos_b             1.00 
      495 xsa_logic.xrsh5.xi42.xi9.       nmos_b             1.00 
      496 xsa_logic.xrsh5.xi42.xp1.       pmos_b             1.00 
      497 xsa_logic.xrsh5.xi42.xi10.      pmos_b             1.00 
      498 xsa_logic.xrsh5.xi43.xn1.       nmos_b             1.00 
      499 xsa_logic.xrsh5.xi43.xi9.       nmos_b             1.00 
      500 xsa_logic.xrsh5.xi43.xp1.       pmos_b             1.00 
      501 xsa_logic.xrsh5.xi43.xi10.      pmos_b             1.00 
      502 xsa_logic.xrsh5.xi31.xn1.       nmos_b             1.00 
      503 xsa_logic.xrsh5.xi31.xi9.       nmos_b             1.00 
      504 xsa_logic.xrsh5.xi31.xp1.       pmos_b             1.00 
      505 xsa_logic.xrsh5.xi31.xi10.      pmos_b             1.00 
      506 xsa_logic.xrsh5.xi37.xn1.       nmos_b             1.00 
      507 xsa_logic.xrsh5.xi37.xi9.       nmos_b             1.00 
      508 xsa_logic.xrsh5.xi37.xp1.       pmos_b             1.00 
      509 xsa_logic.xrsh5.xi37.xi10.      pmos_b             1.00 
      510 xsa_logic.xrsh6.xi1.xp1.        pmos_b             1.00 
      511 xsa_logic.xrsh6.xi1.xn1.        nmos_b             1.00 
      512 xsa_logic.xrsh6.xi42.xn1.       nmos_b             1.00 
      513 xsa_logic.xrsh6.xi42.xi9.       nmos_b             1.00 
      514 xsa_logic.xrsh6.xi42.xp1.       pmos_b             1.00 
      515 xsa_logic.xrsh6.xi42.xi10.      pmos_b             1.00 
      516 xsa_logic.xrsh6.xi43.xn1.       nmos_b             1.00 
      517 xsa_logic.xrsh6.xi43.xi9.       nmos_b             1.00 
      518 xsa_logic.xrsh6.xi43.xp1.       pmos_b             1.00 
      519 xsa_logic.xrsh6.xi43.xi10.      pmos_b             1.00 
      520 xsa_logic.xrsh6.xi31.xn1.       nmos_b             1.00 
      521 xsa_logic.xrsh6.xi31.xi9.       nmos_b             1.00 
      522 xsa_logic.xrsh6.xi31.xp1.       pmos_b             1.00 
      523 xsa_logic.xrsh6.xi31.xi10.      pmos_b             1.00 
      524 xsa_logic.xrsh6.xi37.xn1.       nmos_b             1.00 
      525 xsa_logic.xrsh6.xi37.xi9.       nmos_b             1.00 
      526 xsa_logic.xrsh6.xi37.xp1.       pmos_b             1.00 
      527 xsa_logic.xrsh6.xi37.xi10.      pmos_b             1.00 
  **info** (bhv5.sp:31) DC voltage reset to initial transient source value in source 0:vclk. new dc=0.0000D+00
  
  **warning** No connections on node iref; Node ignored.

  **warning** the following singular supplies were terminated to 1 meg resistor 
          supply       node1            node2
(bhv5.sp:25)vagnd                   0:agnd             defined in subckt 0                     0:0                defined in subckt 0               
(bhv5.sp:23)vavdd                   0:avdd             defined in subckt 0                     0:0                defined in subckt 0               
(bhv5.sp:28)vdsub                   0:dsub             defined in subckt 0                     0:0                defined in subckt 0               
(../et710/ece627_bhv_ckt.cir:65)e1                     23:vcmi             defined in subckt fdopb                 0:0                defined in subckt 0               
      

Element variations(Local):   element              parameter
 *****************************************************************
 ******  option summary
 ******
 runlvl  = 5         bypass  = 2.0000    
             
 Summary of Linear Res Distribution Info
 ---------------------------------------
 |Range          |Total     |Percent(%)|
 |---------------+----------+----------|
 |1e+00  ~  1e+03|63        |7.0787    |
 |1e+05  ~  1e+06|6         |0.6742    |
 |1e+08  ~  1e+09|1         |0.1124    |
 |1e+11  ~  1e+12|820       |92.1348   |
 ---------------------------------------
              
             
 Summary of Linear Cap Distribution Info
 ---------------------------------------
 |Range          |Total     |Percent(%)|
 |---------------+----------+----------|
 |1e-17  ~  1e-16|410       |79.9220   |
 |1e-15  ~  1e-14|35        |6.8226    |
 |1e-14  ~  1e-13|68        |13.2554   |
 ---------------------------------------
              
             
 Summary of Detailed RC Type Statistics
 -----------------------------
 |Element Type    |Number    |
 |----------------+----------|
 |Constant Res    |886       |
 |Other Linear Res|4         |
 |                |          |
 |Constant Cap    |513       |
 -----------------------------
              
  Opening plot unit= 15
 file=bhv5.pa0

 **info** dc convergence successful at Newton-Raphson method 
 ******  
 * idc_mod simulation

 ****** operating point information tnom=  25.000 temp=  60.000 ******
 ****** operating point status is all       simulation time is     0.     
      node    =voltage        node    =voltage        node    =voltage

 +  0:agnd    =   0.        0:avdd    =   1.0000    0:clk     =   0.     
 +  0:clk_b   =   1.0000    0:cmp_inn = 500.0000m   0:cmp_inp = 500.0000m
 +  0:cmp_out =  30.0000f   0:cmp_out_=   1.0000    0:d_0     =  10.0000f
 +  0:d_1     =  10.0000f   0:d_2     =  10.0000f   0:d_3     =  10.0000f
 +  0:d_4     =  10.0000f   0:d_5     =  10.0000f   0:d_6     =  10.0000f
 +  0:d_7     =  10.0000f   0:d_cur   =   0.        0:db_7    =   1.0000 
 +  0:dgnd    =   0.        0:dsub    =   0.        0:dvdd    =   1.0000 
 +  0:feed_bac=   1.0000    0:iref    =   0.        0:net0159 = 333.0003u
 +  0:net056_0=   1.0000    0:net056_1=   1.0000    0:net056_2=   1.0000 
 +  0:net056_3=   1.0000    0:net056_4=   1.0000    0:net056_5=   1.0000 
 +  0:net056_6=   1.0000    0:net110  = 499.5005u   0:net134  = 500.0000m
 +  0:net146  = 666.0007u   0:net162  = 500.0000m   0:net166  = 500.0000m
 +  0:net195  =  40.0000f   0:net208  =   1.0000    0:net224  =   1.0000 
 +  0:net65   =   1.0000    0:net80   = 500.0000m   0:net86   = 499.5005u
 +  0:pback   =   1.0000    0:pback_b =  10.0000f   0:pdac    =  10.0000f
 +  0:pdac_b  =   1.0000    0:pdn     =   0.        0:pmeasn  =  10.0000f
 +  0:pmeasn_b=   1.0000    0:pmeasp  =  10.0000f   0:pmeasp_b=   1.0000 
 +  0:psamp   =   0.        0:psamp_b =   1.0000    0:psamph  =  10.0000f
 +  0:psamph_b=   1.0000    0:sa_0    =   1.0000    0:sa_1    =   1.0000 
 +  0:sa_2    =   1.0000    0:sa_3    =   1.0000    0:sa_4    =   1.0000 
 +  0:sa_5    =   1.0000    0:sa_6    =   1.0000    0:sa_7    =   1.0000 
 +  0:sa_b_0  =  20.0000f   0:sa_b_1  =  20.0000f   0:sa_b_2  =  20.0000f
 +  0:sa_b_3  =  20.0000f   0:sa_b_4  =  20.0000f   0:sa_b_5  =  20.0000f
 +  0:sa_b_6  =  20.0000f   0:sa_b_7  =  20.0000f   0:vcm     = 500.0000m
 +  0:vcm1    = 500.0000m   0:vinn    = 500.0000m   0:vinp    = 500.0000m
 +  0:vrefn   =   0.        0:vrefp   =   1.0000    2:vout1   =   0.     
 +  3:net16   =   1.0000    4:net16   =  20.0000f  23:vcmi    = 500.0000m
 + 24:clkb    =   1.0000   24:dff1    =  10.0000f  24:dff2    =   1.0000 
 + 24:dff3    =  30.0000f  24:net41   =  10.0000f  24:net54   =   1.0000 
 + 24:net69   =   1.0000   25:clkb    =   1.0000   25:dff1    =  10.0000f
 + 25:dff2    =   1.0000   25:dff3    =  30.0000f  25:net41   =  10.0000f
 + 25:net54   =   1.0000   25:net69   =   1.0000   26:clkb    =   1.0000 
 + 26:dff1    =  10.0000f  26:dff2    =   1.0000   26:dff3    =  30.0000f
 + 26:net41   =  10.0000f  26:net54   =   1.0000   26:net69   =   1.0000 
 + 27:clkb    =   1.0000   27:dff1    =  10.0000f  27:dff2    =   1.0000 
 + 27:dff3    =  30.0000f  27:net41   =  10.0000f  27:net54   =   1.0000 
 + 27:net69   =   1.0000   28:clkb    =   1.0000   28:dff1    =  10.0000f
 + 28:dff2    =   1.0000   28:dff3    =  30.0000f  28:net41   =  10.0000f
 + 28:net54   =   1.0000   28:net69   =   1.0000   29:clkb    =   1.0000 
 + 29:dff1    =  10.0000f  29:dff2    =   1.0000   29:dff3    =  30.0000f
 + 29:net41   =  10.0000f  29:net54   =   1.0000   29:net69   =   1.0000 
 + 30:clkb    =   1.0000   30:dff1    =  10.0000f  30:dff2    =   1.0000 
 + 30:dff3    =  30.0000f  30:net41   =  10.0000f  30:net54   =   1.0000 
 + 30:net69   =   1.0000   31:clkb    =   1.0000   31:dff1    =  10.0000f
 + 31:dff2    =   1.0000   31:dff3    =  30.0000f  31:net41   =  10.0000f
 + 31:net54   =   1.0000   31:net69   =   1.0000   32:net8    = 499.5005u
 + 33:net8    =   1.0000   34:net8    =  20.0000f  35:net8    = 499.5005u
 + 36:net8    =  10.0000f  37:net23   =   1.0000   38:net23   =   1.0000 
 + 39:net23   =   1.0000   40:net23   =   1.0000   41:net23   =  10.0000f
 + 42:net23   =   1.0000   43:net23   =  10.0000f  44:net23   =   1.0000 
 + 45:net23   =  10.0000f  46:net23   =   1.0000   47:net23   =  10.0000f
 + 48:net017  =   1.0000   48:net22   =  30.0000f  48:net8    =   1.0000 
 + 49:net017  =   1.0000   49:net22   =  10.0000f  49:net8    =   1.0000 
 + 50:clkb    =  10.0000f  50:dff1    =  10.0000f  50:dff2    =   1.0000 
 + 50:dff3    =   1.0000   50:net41   =  10.0000f  50:net54   =  10.0000f
 + 50:net69   =   1.0000   51:clkb    =  10.0000f  51:dff1    =  10.0000f
 + 51:dff2    =   1.0000   51:dff3    =   1.0000   51:net41   =  10.0000f
 + 51:net54   =  10.0000f  51:net69   =   1.0000   52:clkb    =  10.0000f
 + 52:dff1    =  10.0000f  52:dff2    =   1.0000   52:dff3    =   1.0000 
 + 52:net41   =  10.0000f  52:net54   =  10.0000f  52:net69   =   1.0000 
 + 53:clkb    =  10.0000f  53:dff1    =  10.0000f  53:dff2    =   1.0000 
 + 53:dff3    =   1.0000   53:net41   =  10.0000f  53:net54   =  10.0000f
 + 53:net69   =   1.0000   54:clkb    =  10.0000f  54:dff1    =  10.0000f
 + 54:dff2    =   1.0000   54:dff3    =   1.0000   54:net41   =  10.0000f
 + 54:net54   =  10.0000f  54:net69   =   1.0000   55:clkb    =  10.0000f
 + 55:dff1    =  10.0000f  55:dff2    =   1.0000   55:dff3    =   1.0000 
 + 55:net41   =  10.0000f  55:net54   =  10.0000f  55:net69   =   1.0000 
 + 56:clkb    =  10.0000f  56:dff1    =  10.0000f  56:dff2    =   1.0000 
 + 56:dff3    =   1.0000   56:net41   =  10.0000f  56:net54   =  10.0000f
 + 56:net69   =   1.0000   65:net23   =   1.0000   70:net16   =  20.0000f
 + 71:net16   =  30.0000f  72:net16   =   1.0000   73:net16   =   1.0000 
 + 74:net23   =   1.0000   79:net16   =  20.0000f  80:net16   =  30.0000f
 + 81:net16   =   1.0000   82:net16   =   1.0000   83:net23   =   1.0000 
 + 88:net16   =  20.0000f  89:net16   =  30.0000f  90:net16   =   1.0000 
 + 91:net16   =   1.0000   92:net23   =   1.0000   97:net16   =  20.0000f
 + 98:net16   =  30.0000f  99:net16   =   1.0000  100:net16   =   1.0000 
 +101:net23   =   1.0000  106:net16   =  20.0000f 107:net16   =  30.0000f
 +108:net16   =   1.0000  109:net16   =   1.0000  110:net23   =   1.0000 
 +115:net16   =  20.0000f 116:net16   =  30.0000f 117:net16   =   1.0000 
 +118:net16   =   1.0000  119:net23   =   1.0000  124:net16   =  20.0000f
 +125:net16   =  30.0000f 126:net16   =   1.0000  127:net16   =   1.0000 
 +128:net23   =   1.0000  133:net16   =  20.0000f 134:net16   =  30.0000f
 +135:net16   =   1.0000  136:net16   =   1.0000  179:net23   =  20.0000f
 +180:net23   =   1.0000  183:net23   =  10.0000f 184:net23   =   1.0000 
 +187:net23   =  10.0000f 192:net16   =  20.0000f 193:net16   =   1.0000 
 +194:net16   =   1.0000  195:net16   =  20.0000f 196:net23   =  10.0000f
 +201:net16   =  20.0000f 202:net16   =   1.0000  203:net16   =   1.0000 
 +204:net16   =  20.0000f 205:net23   =  10.0000f 210:net16   =  20.0000f
 +211:net16   =   1.0000  212:net16   =   1.0000  213:net16   =  20.0000f
 +214:net23   =  10.0000f 219:net16   =  20.0000f 220:net16   =   1.0000 
 +221:net16   =   1.0000  222:net16   =  20.0000f 223:net23   =  10.0000f
 +228:net16   =  20.0000f 229:net16   =   1.0000  230:net16   =   1.0000 
 +231:net16   =  20.0000f 232:net23   =  10.0000f 237:net16   =  20.0000f
 +238:net16   =   1.0000  239:net16   =   1.0000  240:net16   =  20.0000f
 +241:net23   =  10.0000f 246:net16   =  20.0000f 247:net16   =   1.0000 
 +248:net16   =   1.0000  249:net16   =  20.0000f


 **** voltage sources

 subckt                                                                   
 element    0:v_refn     0:v_refp     0:v_vcm      0:vagnd      0:vavdd   
  volts        0.           1.0000     500.0000m      0.           1.0000 
  current    3.330e-19     -1.0010p     -8.0030p      0.          -1.0000u
  power        0.           1.0010p      4.0015p      0.           1.0000u

 subckt                                                                   
 element    0:vclk       0:vdgnd      0:vdsub      0:vdvdd      0:vinn    
  volts        0.           0.           0.           1.0000      43.3492a
  current      0.         136.0010f      0.        -344.1391p   -500.0000f
  power        0.           0.           0.         344.1391p      0.     

 subckt                            
 element    0:vinp       0:vsamp   
  volts        0.           0.     
  current   -500.0000f      0.     
  power        0.           0.     

     total voltage source power dissipation=    1.0003u       watts



 **** resistors

 subckt     xi46         xi46         xi61         xi61         xi62      
 element    2:rin        2:rvout      5:r1         5:r2         6:r1      
  r value      1.0000g    100.0000     1.000e+12    1.000e+12    1.000e+12
  v drop       0.           0.          30.0000f      1.0000       1.0000 
  current      0.           0.         3.000e-26      1.0000p      1.0000p
  power        0.           0.           0.           1.0000p      1.0000p

 subckt     xi62         xi54         xi54         xi26         xi26      
 element    6:r2         7:r1         7:r2         8:r1         8:r2      
  r value    1.000e+12    1.000e+12    1.000e+12    1.000e+12    1.000e+12
  v drop       1.0000     333.0003u    500.0000m    333.0003u    500.0000m
  current      1.0000p    333.0003a    500.0000f    333.0003a    500.0000f
  power        1.0000p    1.109e-19    250.0000f    1.109e-19    250.0000f

 subckt     xi33         xi33         xi32         xi32         xi28      
 element    9:r1         9:r2        10:r1        10:r2        11:r1      
  r value    1.000e+12    1.000e+12    1.000e+12    1.000e+12    1.000e+12
  v drop     500.0000m    499.5005u    499.5005u    500.0000m    500.0000m
  current    500.0000f    499.5005a    499.5005a    500.0000f    500.0000f
  power      250.0000f    2.495e-19    2.495e-19    250.0000f    250.0000f

 subckt     xi28         xi35         xi35         xi34         xi34      
 element   11:r2        12:r1        12:r2        13:r1        13:r2      
  r value    1.000e+12    1.000e+12    1.000e+12    1.000e+12    1.000e+12
  v drop     500.0000m    500.0000m    500.0000m    500.0000m    499.5005u
  current    500.0000f    500.0000f    500.0000f    500.0000f    499.5005a
  power      250.0000f    250.0000f    250.0000f    250.0000f    2.495e-19

 subckt     xi36         xi36         xi29         xi29         xi31      
 element   14:r1        14:r2        15:r1        15:r2        16:r1      
  r value    1.000e+12    1.000e+12    1.000e+12    1.000e+12    1.000e+12
  v drop     500.0000m    500.0000m    500.0000m    500.0000m    499.5005u
  current    500.0000f    500.0000f    500.0000f    500.0000f    499.5005a
  power      250.0000f    250.0000f    250.0000f    250.0000f    2.495e-19

 subckt     xi31         xi53         xi53         xi25         xi25      
 element   16:r2        17:r1        17:r2        18:r1        18:r2      
  r value    1.000e+12    1.000e+12    1.000e+12    1.000e+12    1.000e+12
  v drop     500.0000m    666.0007u    500.0000m    666.0007u    500.0000m
  current    500.0000f    666.0007a    500.0000f    666.0007a    500.0000f
  power      250.0000f    4.436e-19    250.0000f    4.436e-19    250.0000f

 subckt     xi24         xi24         xswvcmp      xswvcmp      xi30      
 element   19:r1        19:r2        20:r1        20:r2        21:r1      
  r value    1.000e+12    1.000e+12    1.000e+12    1.000e+12    1.000e+12
  v drop       1.0000     666.0007u      0.         333.0003u    500.0000m
  current      1.0000p    666.0007a      0.         333.0003a    500.0000f
  power        1.0000p    4.436e-19      0.         1.109e-19    250.0000f

 subckt     xi30         xi27         xi27         xdffout_7    xdffout_7 
 element   21:r2        22:r1        22:r2        24:r1        24:r0      
  r value    1.000e+12    1.000e+12    1.000e+12      2.0000       2.0000 
  v drop     500.0000m    500.0000m    500.0000m      2.0021p      0.     
  current    500.0000f    500.0000f    500.0000f      1.0010p      0.     
  power      250.0000f    250.0000f    250.0000f    2.004e-24      0.     

 subckt     xdffout_6    xdffout_6    xdffout_5    xdffout_5    xdffout_4 
 element   25:r1        25:r0        26:r1        26:r0        27:r1      
  r value      2.0000       2.0000       2.0000       2.0000       2.0000 
  v drop       2.0021p      0.           2.0021p      0.           2.0021p
  current      1.0010p      0.           1.0010p      0.           1.0010p
  power      2.004e-24      0.         2.004e-24      0.         2.004e-24

 subckt     xdffout_4    xdffout_3    xdffout_3    xdffout_2    xdffout_2 
 element   27:r0        28:r1        28:r0        29:r1        29:r0      
  r value      2.0000       2.0000       2.0000       2.0000       2.0000 
  v drop       0.           2.0021p      0.           2.0021p      0.     
  current      0.           1.0010p      0.           1.0010p      0.     
  power        0.         2.004e-24      0.         2.004e-24      0.     

 subckt     xdffout_1    xdffout_1    xdffout_0    xdffout_0    xi45      
 element   30:r1        30:r0        31:r1        31:r0        37:r1      
  r value      2.0000       2.0000       2.0000       2.0000      10.0000 
  v drop       2.0021p      0.           2.0021p      0.           0.     
  current      1.0010p      0.           1.0010p      0.           0.     
  power      2.004e-24      0.         2.004e-24      0.           0.     

 subckt     xi63         xi5          xi43         xi44         xi58      
 element   38:r1        39:r1        40:r1        41:r1        42:r1      
  r value     10.0000      10.0000      10.0000      10.0000      10.0000 
  v drop      30.0100p      0.           0.           0.           0.     
  current      3.0010p      0.           0.           0.           0.     
  power      9.006e-23      0.           0.           0.           0.     

 subckt     xi60         xi41         xi57         xi8          xi6       
 element   43:r1        44:r1        45:r1        46:r1        47:r1      
  r value     10.0000      10.0000      10.0000      10.0000      10.0000 
  v drop       0.           0.           0.           0.           0.     
  current      0.           0.           0.           0.           0.     
  power        0.           0.           0.           0.           0.     

 subckt     xi49         xcmplatch    xsa_logic.   xsa_logic.   xsa_logic.
 element   48:r1        49:r1        50:r1        50:r0        51:r1      
  r value      2.0000       2.0000       2.0000       2.0000       2.0000 
  v drop       0.           0.           6.0000p    6.000e-26      6.0000p
  current      0.           0.           3.0000p    3.000e-26      3.0000p
  power        0.           0.         1.800e-23      0.         1.800e-23

 subckt     xsa_logic.   xsa_logic.   xsa_logic.   xsa_logic.   xsa_logic.
 element   51:r0        52:r1        52:r0        53:r1        53:r0      
  r value      2.0000       2.0000       2.0000       2.0000       2.0000 
  v drop     8.000e-26      6.0000p    8.000e-26      6.0000p    8.000e-26
  current    4.000e-26      3.0000p    4.000e-26      3.0000p    4.000e-26
  power        0.         1.800e-23      0.         1.800e-23      0.     

 subckt     xsa_logic.   xsa_logic.   xsa_logic.   xsa_logic.   xsa_logic.
 element   54:r1        54:r0        55:r1        55:r0        56:r1      
  r value      2.0000       2.0000       2.0000       2.0000       2.0000 
  v drop       6.0000p    8.000e-26      6.0000p    8.000e-26      6.0000p
  current      3.0000p    4.000e-26      3.0000p    4.000e-26      3.0000p
  power      1.800e-23      0.         1.800e-23      0.         1.800e-23

 subckt     xsa_logic.   xi47.xn1     xi47.xn1     xi47.xi9     xi47.xi9  
 element   56:r0        57:r1        57:r2        58:r1        58:r2      
  r value      2.0000     1.000e+12    1.000e+12    1.000e+12    1.000e+12
  v drop     8.000e-26      1.0000       0.           1.0000       0.     
  current    4.000e-26      1.0000p      0.           1.0000p      0.     
  power        0.           1.0000p      0.           1.0000p      0.     

 subckt     xi47.xp1     xi47.xp1     xi47.xi10    xi47.xi10    xi40.xn1  
 element   59:r1        59:r2        60:r1        60:r2        61:r1      
  r value    1.000e+12    1.000e+12    1.000e+12    1.000e+12    1.000e+12
  v drop       1.0000       1.0000       1.0000       1.0000      10.0000f
  current      1.0000p      1.0000p      1.0000p      1.0000p    1.000e-26
  power        1.0000p      1.0000p      1.0000p      1.0000p      0.     

 subckt     xi40.xn1     xi40.xi9     xi40.xi9     xi40.xp1     xi40.xp1  
 element   61:r2        62:r1        62:r2        63:r1        63:r2      
  r value    1.000e+12    1.000e+12    1.000e+12    1.000e+12    1.000e+12
  v drop       0.          10.0000f      0.          10.0000f     20.0000f
  current      0.         1.000e-26      0.         1.000e-26    2.000e-26
  power        0.           0.           0.           0.           0.     

 subckt     xi40.xi10    xi40.xi10    xdffout_7.   xdffout_7.   xdffout_7.
 element   64:r1        64:r2        65:r1        66:r1        66:r2      
  r value    1.000e+12    1.000e+12     10.0000     1.000e+12    1.000e+12
  v drop      20.0000f      1.0000       0.          10.0000f     10.0000f
  current    2.000e-26      1.0000p      0.         1.000e-26    1.000e-26
  power        0.           1.0000p      0.           0.           0.     

 subckt     xdffout_7.   xdffout_7.   xdffout_7.   xdffout_7.   xdffout_7.
 element   67:r1        67:r2        68:r1        68:r2        69:r1      
  r value    1.000e+12    1.000e+12    1.000e+12    1.000e+12    1.000e+12
  v drop      30.0000f     20.0000f      1.0000      30.0000f     10.0000f
  current    3.000e-26    2.000e-26      1.0000p    3.000e-26    1.000e-26
  power        0.           0.           1.0000p      0.           0.     

 subckt     xdffout_7.   xdffout_6.   xdffout_6.   xdffout_6.   xdffout_6.
 element   69:r2        74:r1        75:r1        75:r2        76:r1      
  r value    1.000e+12     10.0000     1.000e+12    1.000e+12    1.000e+12
  v drop      10.0000f      0.          10.0000f     10.0000f     30.0000f
  current    1.000e-26      0.         1.000e-26    1.000e-26    3.000e-26
  power        0.           0.           0.           0.           0.     

 subckt     xdffout_6.   xdffout_6.   xdffout_6.   xdffout_6.   xdffout_6.
 element   76:r2        77:r1        77:r2        78:r1        78:r2      
  r value    1.000e+12    1.000e+12    1.000e+12    1.000e+12    1.000e+12
  v drop      20.0000f      1.0000      30.0000f     10.0000f     10.0000f
  current    2.000e-26      1.0000p    3.000e-26    1.000e-26    1.000e-26
  power        0.           1.0000p      0.           0.           0.     

 subckt     xdffout_5.   xdffout_5.   xdffout_5.   xdffout_5.   xdffout_5.
 element   83:r1        84:r1        84:r2        85:r1        85:r2      
  r value     10.0000     1.000e+12    1.000e+12    1.000e+12    1.000e+12
  v drop       0.          10.0000f     10.0000f     30.0000f     20.0000f
  current      0.         1.000e-26    1.000e-26    3.000e-26    2.000e-26
  power        0.           0.           0.           0.           0.     

 subckt     xdffout_5.   xdffout_5.   xdffout_5.   xdffout_5.   xdffout_4.
 element   86:r1        86:r2        87:r1        87:r2        92:r1      
  r value    1.000e+12    1.000e+12    1.000e+12    1.000e+12     10.0000 
  v drop       1.0000      30.0000f     10.0000f     10.0000f      0.     
  current      1.0000p    3.000e-26    1.000e-26    1.000e-26      0.     
  power        1.0000p      0.           0.           0.           0.     

 subckt     xdffout_4.   xdffout_4.   xdffout_4.   xdffout_4.   xdffout_4.
 element   93:r1        93:r2        94:r1        94:r2        95:r1      
  r value    1.000e+12    1.000e+12    1.000e+12    1.000e+12    1.000e+12
  v drop      10.0000f     10.0000f     30.0000f     20.0000f      1.0000 
  current    1.000e-26    1.000e-26    3.000e-26    2.000e-26      1.0000p
  power        0.           0.           0.           0.           1.0000p

 subckt     xdffout_4.   xdffout_4.   xdffout_4.   xdffout_3.   xdffout_3.
 element   95:r2        96:r1        96:r2       101:r1       102:r1      
  r value    1.000e+12    1.000e+12    1.000e+12     10.0000     1.000e+12
  v drop      30.0000f     10.0000f     10.0000f      0.          10.0000f
  current    3.000e-26    1.000e-26    1.000e-26      0.         1.000e-26
  power        0.           0.           0.           0.           0.     

 subckt     xdffout_3.   xdffout_3.   xdffout_3.   xdffout_3.   xdffout_3.
 element  102:r2       103:r1       103:r2       104:r1       104:r2      
  r value    1.000e+12    1.000e+12    1.000e+12    1.000e+12    1.000e+12
  v drop      10.0000f     30.0000f     20.0000f      1.0000      30.0000f
  current    1.000e-26    3.000e-26    2.000e-26      1.0000p    3.000e-26
  power        0.           0.           0.           1.0000p      0.     

 subckt     xdffout_3.   xdffout_3.   xdffout_2.   xdffout_2.   xdffout_2.
 element  105:r1       105:r2       110:r1       111:r1       111:r2      
  r value    1.000e+12    1.000e+12     10.0000     1.000e+12    1.000e+12
  v drop      10.0000f     10.0000f      0.          10.0000f     10.0000f
  current    1.000e-26    1.000e-26      0.         1.000e-26    1.000e-26
  power        0.           0.           0.           0.           0.     

 subckt     xdffout_2.   xdffout_2.   xdffout_2.   xdffout_2.   xdffout_2.
 element  112:r1       112:r2       113:r1       113:r2       114:r1      
  r value    1.000e+12    1.000e+12    1.000e+12    1.000e+12    1.000e+12
  v drop      30.0000f     20.0000f      1.0000      30.0000f     10.0000f
  current    3.000e-26    2.000e-26      1.0000p    3.000e-26    1.000e-26
  power        0.           0.           1.0000p      0.           0.     

 subckt     xdffout_2.   xdffout_1.   xdffout_1.   xdffout_1.   xdffout_1.
 element  114:r2       119:r1       120:r1       120:r2       121:r1      
  r value    1.000e+12     10.0000     1.000e+12    1.000e+12    1.000e+12
  v drop      10.0000f      0.          10.0000f     10.0000f     30.0000f
  current    1.000e-26      0.         1.000e-26    1.000e-26    3.000e-26
  power        0.           0.           0.           0.           0.     

 subckt     xdffout_1.   xdffout_1.   xdffout_1.   xdffout_1.   xdffout_1.
 element  121:r2       122:r1       122:r2       123:r1       123:r2      
  r value    1.000e+12    1.000e+12    1.000e+12    1.000e+12    1.000e+12
  v drop      20.0000f      1.0000      30.0000f     10.0000f     10.0000f
  current    2.000e-26      1.0000p    3.000e-26    1.000e-26    1.000e-26
  power        0.           1.0000p      0.           0.           0.     

 subckt     xdffout_0.   xdffout_0.   xdffout_0.   xdffout_0.   xdffout_0.
 element  128:r1       129:r1       129:r2       130:r1       130:r2      
  r value     10.0000     1.000e+12    1.000e+12    1.000e+12    1.000e+12
  v drop       0.          10.0000f     10.0000f     30.0000f     20.0000f
  current      0.         1.000e-26    1.000e-26    3.000e-26    2.000e-26
  power        0.           0.           0.           0.           0.     

 subckt     xdffout_0.   xdffout_0.   xdffout_0.   xdffout_0.   xi42.xn1  
 element  131:r1       131:r2       132:r1       132:r2       137:r1      
  r value    1.000e+12    1.000e+12    1.000e+12    1.000e+12    1.000e+12
  v drop       1.0000      30.0000f     10.0000f     10.0000f      1.0000 
  current      1.0000p    3.000e-26    1.000e-26    1.000e-26      1.0000p
  power        1.0000p      0.           0.           0.           1.0000p

 subckt     xi42.xn1     xi42.xi9     xi42.xi9     xi42.xp1     xi42.xp1  
 element  137:r2       138:r1       138:r2       139:r1       139:r2      
  r value    1.000e+12    1.000e+12    1.000e+12    1.000e+12    1.000e+12
  v drop     499.5005u    499.5005u      0.           1.0000       1.0000 
  current    499.5005a    499.5005a      0.           1.0000p      1.0000p
  power      2.495e-19    2.495e-19      0.           1.0000p      1.0000p

 subckt     xi42.xi10    xi42.xi10    xi59.xn1     xi59.xn1     xi59.xi9  
 element  140:r1       140:r2       141:r1       141:r2       142:r1      
  r value    1.000e+12    1.000e+12    1.000e+12    1.000e+12    1.000e+12
  v drop       1.0000       1.0000       1.0000       1.0000       1.0000 
  current      1.0000p      1.0000p      1.0000p      1.0000p      1.0000p
  power        1.0000p      1.0000p      1.0000p      1.0000p      1.0000p

 subckt     xi59.xi9     xi59.xp1     xi59.xp1     xi59.xi10    xi59.xi10 
 element  142:r2       143:r1       143:r2       144:r1       144:r2      
  r value    1.000e+12    1.000e+12    1.000e+12    1.000e+12    1.000e+12
  v drop       0.           1.0000       1.0000       1.0000       1.0000 
  current      0.           1.0000p      1.0000p      1.0000p      1.0000p
  power        0.           1.0000p      1.0000p      1.0000p      1.0000p

 subckt     xi37.xn1     xi37.xn1     xi37.xi9     xi37.xi9     xi37.xp1  
 element  145:r1       145:r2       146:r1       146:r2       147:r1      
  r value    1.000e+12    1.000e+12    1.000e+12    1.000e+12    1.000e+12
  v drop      40.0000f     20.0000f     20.0000f      0.          40.0000f
  current    4.000e-26    2.000e-26    2.000e-26      0.         4.000e-26
  power        0.           0.           0.           0.           0.     

 subckt     xi37.xp1     xi37.xi10    xi37.xi10    xi55.xn1     xi55.xn1  
 element  147:r2       148:r1       148:r2       149:r1       149:r2      
  r value    1.000e+12    1.000e+12    1.000e+12    1.000e+12    1.000e+12
  v drop       1.0000      40.0000f      1.0000       1.0000     499.5005u
  current      1.0000p    4.000e-26      1.0000p      1.0000p    499.5005a
  power        1.0000p      0.           1.0000p      1.0000p    2.495e-19

 subckt     xi55.xi9     xi55.xi9     xi55.xp1     xi55.xp1     xi55.xi10 
 element  150:r1       150:r2       151:r1       151:r2       152:r1      
  r value    1.000e+12    1.000e+12    1.000e+12    1.000e+12    1.000e+12
  v drop     499.5005u      0.           1.0000       1.0000       1.0000 
  current    499.5005a      0.           1.0000p      1.0000p      1.0000p
  power      2.495e-19      0.           1.0000p      1.0000p      1.0000p

 subckt     xi55.xi10    xi7.xn1      xi7.xn1      xi7.xi9      xi7.xi9   
 element  152:r2       153:r1       153:r2       154:r1       154:r2      
  r value    1.000e+12    1.000e+12    1.000e+12    1.000e+12    1.000e+12
  v drop       1.0000       1.0000      10.0000f     10.0000f      0.     
  current      1.0000p      1.0000p    1.000e-26    1.000e-26      0.     
  power        1.0000p      1.0000p      0.           0.           0.     

 subckt     xi7.xp1      xi7.xp1      xi7.xi10     xi7.xi10     xi45.xp1  
 element  155:r1       155:r2       156:r1       156:r2       157:r1      
  r value    1.000e+12    1.000e+12    1.000e+12    1.000e+12    1.000e+12
  v drop       1.0000       1.0000       1.0000       1.0000       1.0000 
  current      1.0000p      1.0000p      1.0000p      1.0000p      1.0000p
  power        1.0000p      1.0000p      1.0000p      1.0000p      1.0000p

 subckt     xi45.xp1     xi45.xn1     xi45.xn1     xi63.xp1     xi63.xp1  
 element  157:r2       158:r1       158:r2       159:r1       159:r2      
  r value    1.000e+12    1.000e+12    1.000e+12    1.000e+12    1.000e+12
  v drop       1.0000       1.0000       0.           1.0000       1.0000 
  current      1.0000p      1.0000p      0.           1.0000p      1.0000p
  power        1.0000p      1.0000p      0.           1.0000p      1.0000p

 subckt     xi63.xn1     xi63.xn1     xi5.xp1      xi5.xp1      xi5.xn1   
 element  160:r1       160:r2       161:r1       161:r2       162:r1      
  r value    1.000e+12    1.000e+12    1.000e+12    1.000e+12    1.000e+12
  v drop       1.0000       0.           1.0000       1.0000       1.0000 
  current      1.0000p      0.           1.0000p      1.0000p      1.0000p
  power        1.0000p      0.           1.0000p      1.0000p      1.0000p

 subckt     xi5.xn1      xi43.xp1     xi43.xp1     xi43.xn1     xi43.xn1  
 element  162:r2       163:r1       163:r2       164:r1       164:r2      
  r value    1.000e+12    1.000e+12    1.000e+12    1.000e+12    1.000e+12
  v drop       0.           1.0000       1.0000       1.0000       0.     
  current      0.           1.0000p      1.0000p      1.0000p      0.     
  power        0.           1.0000p      1.0000p      1.0000p      0.     

 subckt     xi44.xp1     xi44.xp1     xi44.xn1     xi44.xn1     xi58.xp1  
 element  165:r1       165:r2       166:r1       166:r2       167:r1      
  r value    1.000e+12    1.000e+12    1.000e+12    1.000e+12    1.000e+12
  v drop      10.0000f      1.0000      10.0000f      0.           1.0000 
  current    1.000e-26      1.0000p    1.000e-26      0.           1.0000p
  power        0.           1.0000p      0.           0.           1.0000p

 subckt     xi58.xp1     xi58.xn1     xi58.xn1     xi60.xp1     xi60.xp1  
 element  167:r2       168:r1       168:r2       169:r1       169:r2      
  r value    1.000e+12    1.000e+12    1.000e+12    1.000e+12    1.000e+12
  v drop       1.0000       1.0000       0.          10.0000f      1.0000 
  current      1.0000p      1.0000p      0.         1.000e-26      1.0000p
  power        1.0000p      1.0000p      0.           0.           1.0000p

 subckt     xi60.xn1     xi60.xn1     xi41.xp1     xi41.xp1     xi41.xn1  
 element  170:r1       170:r2       171:r1       171:r2       172:r1      
  r value    1.000e+12    1.000e+12    1.000e+12    1.000e+12    1.000e+12
  v drop      10.0000f      0.           1.0000       1.0000       1.0000 
  current    1.000e-26      0.           1.0000p      1.0000p      1.0000p
  power        0.           0.           1.0000p      1.0000p      1.0000p

 subckt     xi41.xn1     xi57.xp1     xi57.xp1     xi57.xn1     xi57.xn1  
 element  172:r2       173:r1       173:r2       174:r1       174:r2      
  r value    1.000e+12    1.000e+12    1.000e+12    1.000e+12    1.000e+12
  v drop       0.          10.0000f      1.0000      10.0000f      0.     
  current      0.         1.000e-26      1.0000p    1.000e-26      0.     
  power        0.           0.           1.0000p      0.           0.     

 subckt     xi8.xp1      xi8.xp1      xi8.xn1      xi8.xn1      xi6.xp1   
 element  175:r1       175:r2       176:r1       176:r2       177:r1      
  r value    1.000e+12    1.000e+12    1.000e+12    1.000e+12    1.000e+12
  v drop       1.0000       1.0000       1.0000       0.          10.0000f
  current      1.0000p      1.0000p      1.0000p      0.         1.000e-26
  power        1.0000p      1.0000p      1.0000p      0.           0.     

 subckt     xi6.xp1      xi6.xn1      xi6.xn1      xi49.xi2     xi49.xi1  
 element  177:r2       178:r1       178:r2       179:r1       180:r1      
  r value    1.000e+12    1.000e+12    1.000e+12     10.0000      10.0000 
  v drop       1.0000      10.0000f      0.         -10.0000f   -222.0446a
  current      1.0000p    1.000e-26      0.          -1.0000f    -22.2045a
  power        1.0000p      0.           0.           0.           0.     

 subckt     xi49.xi29    xi49.xi29    xi49.xsw1    xi49.xsw1    xcmplatch.
 element  181:r1       181:r2       182:r1       182:r2       183:r1      
  r value    1.000e+12    1.000e+12    1.000e+12    1.000e+12     10.0000 
  v drop       0.          30.0000f     30.0000f     30.0000f    9.353e-26
  current      0.         3.000e-26    3.000e-26    3.000e-26    9.353e-27
  power        0.           0.           0.           0.           0.     

 subckt     xcmplatch.   xcmplatch.   xcmplatch.   xcmplatch.   xcmplatch.
 element  184:r1       185:r1       185:r2       186:r1       186:r2      
  r value     10.0000     1.000e+12    1.000e+12    1.000e+12    1.000e+12
  v drop    -222.0446a      0.          10.0000f     10.0000f     10.0000f
  current    -22.2045a      0.         1.000e-26    1.000e-26    1.000e-26
  power        0.           0.           0.           0.           0.     

 subckt     xsa_logic.   xsa_logic.   xsa_logic.   xsa_logic.   xsa_logic.
 element  187:r1       188:r1       188:r2       189:r1       189:r2      
  r value     10.0000     1.000e+12    1.000e+12    1.000e+12    1.000e+12
  v drop       0.          10.0000f     10.0000f      1.0000       1.0000 
  current      0.         1.000e-26    1.000e-26      1.0000p      1.0000p
  power        0.           0.           0.           1.0000p      1.0000p

 subckt     xsa_logic.   xsa_logic.   xsa_logic.   xsa_logic.   xsa_logic.
 element  190:r1       190:r2       191:r1       191:r2       196:r1      
  r value    1.000e+12    1.000e+12    1.000e+12    1.000e+12     10.0000 
  v drop       1.0000       1.0000      10.0000f     10.0000f      0.     
  current      1.0000p      1.0000p    1.000e-26    1.000e-26      0.     
  power        1.0000p      1.0000p      0.           0.           0.     

 subckt     xsa_logic.   xsa_logic.   xsa_logic.   xsa_logic.   xsa_logic.
 element  197:r1       197:r2       198:r1       198:r2       199:r1      
  r value    1.000e+12    1.000e+12    1.000e+12    1.000e+12    1.000e+12
  v drop      10.0000f     10.0000f      1.0000       1.0000       1.0000 
  current    1.000e-26    1.000e-26      1.0000p      1.0000p      1.0000p
  power        0.           0.           1.0000p      1.0000p      1.0000p

 subckt     xsa_logic.   xsa_logic.   xsa_logic.   xsa_logic.   xsa_logic.
 element  199:r2       200:r1       200:r2       205:r1       206:r1      
  r value    1.000e+12    1.000e+12    1.000e+12     10.0000     1.000e+12
  v drop       1.0000      10.0000f     10.0000f      0.          10.0000f
  current      1.0000p    1.000e-26    1.000e-26      0.         1.000e-26
  power        1.0000p      0.           0.           0.           0.     

 subckt     xsa_logic.   xsa_logic.   xsa_logic.   xsa_logic.   xsa_logic.
 element  206:r2       207:r1       207:r2       208:r1       208:r2      
  r value    1.000e+12    1.000e+12    1.000e+12    1.000e+12    1.000e+12
  v drop      10.0000f      1.0000       1.0000       1.0000       1.0000 
  current    1.000e-26      1.0000p      1.0000p      1.0000p      1.0000p
  power        0.           1.0000p      1.0000p      1.0000p      1.0000p

 subckt     xsa_logic.   xsa_logic.   xsa_logic.   xsa_logic.   xsa_logic.
 element  209:r1       209:r2       214:r1       215:r1       215:r2      
  r value    1.000e+12    1.000e+12     10.0000     1.000e+12    1.000e+12
  v drop      10.0000f     10.0000f      0.          10.0000f     10.0000f
  current    1.000e-26    1.000e-26      0.         1.000e-26    1.000e-26
  power        0.           0.           0.           0.           0.     

 subckt     xsa_logic.   xsa_logic.   xsa_logic.   xsa_logic.   xsa_logic.
 element  216:r1       216:r2       217:r1       217:r2       218:r1      
  r value    1.000e+12    1.000e+12    1.000e+12    1.000e+12    1.000e+12
  v drop       1.0000       1.0000       1.0000       1.0000      10.0000f
  current      1.0000p      1.0000p      1.0000p      1.0000p    1.000e-26
  power        1.0000p      1.0000p      1.0000p      1.0000p      0.     

 subckt     xsa_logic.   xsa_logic.   xsa_logic.   xsa_logic.   xsa_logic.
 element  218:r2       223:r1       224:r1       224:r2       225:r1      
  r value    1.000e+12     10.0000     1.000e+12    1.000e+12    1.000e+12
  v drop      10.0000f      0.          10.0000f     10.0000f      1.0000 
  current    1.000e-26      0.         1.000e-26    1.000e-26      1.0000p
  power        0.           0.           0.           0.           1.0000p

 subckt     xsa_logic.   xsa_logic.   xsa_logic.   xsa_logic.   xsa_logic.
 element  225:r2       226:r1       226:r2       227:r1       227:r2      
  r value    1.000e+12    1.000e+12    1.000e+12    1.000e+12    1.000e+12
  v drop       1.0000       1.0000       1.0000      10.0000f     10.0000f
  current      1.0000p      1.0000p      1.0000p    1.000e-26    1.000e-26
  power        1.0000p      1.0000p      1.0000p      0.           0.     

 subckt     xsa_logic.   xsa_logic.   xsa_logic.   xsa_logic.   xsa_logic.
 element  232:r1       233:r1       233:r2       234:r1       234:r2      
  r value     10.0000     1.000e+12    1.000e+12    1.000e+12    1.000e+12
  v drop       0.          10.0000f     10.0000f      1.0000       1.0000 
  current      0.         1.000e-26    1.000e-26      1.0000p      1.0000p
  power        0.           0.           0.           1.0000p      1.0000p

 subckt     xsa_logic.   xsa_logic.   xsa_logic.   xsa_logic.   xsa_logic.
 element  235:r1       235:r2       236:r1       236:r2       241:r1      
  r value    1.000e+12    1.000e+12    1.000e+12    1.000e+12     10.0000 
  v drop       1.0000       1.0000      10.0000f     10.0000f      0.     
  current      1.0000p      1.0000p    1.000e-26    1.000e-26      0.     
  power        1.0000p      1.0000p      0.           0.           0.     

 subckt     xsa_logic.   xsa_logic.   xsa_logic.   xsa_logic.   xsa_logic.
 element  242:r1       242:r2       243:r1       243:r2       244:r1      
  r value    1.000e+12    1.000e+12    1.000e+12    1.000e+12    1.000e+12
  v drop      30.0000f     10.0000f      1.0000       1.0000       1.0000 
  current    3.000e-26    1.000e-26      1.0000p      1.0000p      1.0000p
  power        0.           0.           1.0000p      1.0000p      1.0000p

 subckt     xsa_logic.   xsa_logic.   xsa_logic.   xdffout_7.   xdffout_7.
 element  244:r2       245:r1       245:r2       250:r1       250:r2      
  r value    1.000e+12    1.000e+12    1.000e+12    1.000e+12    1.000e+12
  v drop       1.0000      10.0000f     10.0000f      1.0000       1.0000 
  current      1.0000p    1.000e-26    1.000e-26      1.0000p      1.0000p
  power        1.0000p      0.           0.           1.0000p      1.0000p

 subckt     xdffout_7.   xdffout_7.   xdffout_7.   xdffout_7.   xdffout_7.
 element  251:r1       251:r2       252:r1       252:r2       253:r1      
  r value    1.000e+12    1.000e+12    1.000e+12    1.000e+12    1.000e+12
  v drop       1.0000       0.          10.0000f      0.          10.0000f
  current      1.0000p      0.         1.000e-26      0.         1.000e-26
  power        1.0000p      0.           0.           0.           0.     

 subckt     xdffout_7.   xdffout_7.   xdffout_7.   xdffout_7.   xdffout_7.
 element  253:r2       254:r1       254:r2       255:r1       255:r2      
  r value    1.000e+12    1.000e+12    1.000e+12    1.000e+12    1.000e+12
  v drop       0.          10.0000f     20.0000f     20.0000f      1.0000 
  current      0.         1.000e-26    2.000e-26    2.000e-26      1.0000p
  power        0.           0.           0.           0.           1.0000p

 subckt     xdffout_7.   xdffout_7.   xdffout_7.   xdffout_7.   xdffout_7.
 element  256:r1       256:r2       257:r1       257:r2       258:r1      
  r value    1.000e+12    1.000e+12    1.000e+12    1.000e+12    1.000e+12
  v drop      20.0000f      0.          20.0000f      0.          20.0000f
  current    2.000e-26      0.         2.000e-26      0.         2.000e-26
  power        0.           0.           0.           0.           0.     

 subckt     xdffout_7.   xdffout_7.   xdffout_7.   xdffout_7.   xdffout_7.
 element  258:r2       259:r1       259:r2       260:r1       260:r2      
  r value    1.000e+12    1.000e+12    1.000e+12    1.000e+12    1.000e+12
  v drop      30.0000f     30.0000f      1.0000       1.0000       0.     
  current    3.000e-26    3.000e-26      1.0000p      1.0000p      0.     
  power        0.           0.           1.0000p      1.0000p      0.     

 subckt     xdffout_7.   xdffout_7.   xdffout_7.   xdffout_7.   xdffout_7.
 element  261:r1       261:r2       262:r1       262:r2       263:r1      
  r value    1.000e+12    1.000e+12    1.000e+12    1.000e+12    1.000e+12
  v drop       1.0000       0.           1.0000       1.0000       1.0000 
[...]
  r value     10.0000     1.000e+15    1.000e+15    1.000e+15    1.000e+15



 subckt       xswvcmp      xi30         xi27         xi47.xn1     xi47.xi9
 element   20:g1        21:g1        22:g1        57:g1        58:g1      
  r value    1.000e+15     10.0000      10.0000     1.000e+15    1.000e+15



 subckt       xi47.xp1     xi47.xi1     xi40.xn1     xi40.xi9     xi40.xp1
 element   59:g1        60:g1        61:g1        62:g1        63:g1      
  r value     10.0000      10.0000      10.0000     1.000e+15     10.0000 



 subckt       xi40.xi1     xdffout_     xdffout_     xdffout_     xdffout_
 element   64:g1        66:g1        67:g1        68:g1        69:g1      
  r value    1.000e+15     10.0000      10.0000     1.000e+15    1.000e+15



 subckt       xdffout_     xdffout_     xdffout_     xdffout_     xdffout_
 element   75:g1        76:g1        77:g1        78:g1        84:g1      
  r value     10.0000      10.0000     1.000e+15    1.000e+15     10.0000 



 subckt       xdffout_     xdffout_     xdffout_     xdffout_     xdffout_
 element   85:g1        86:g1        87:g1        93:g1        94:g1      
  r value     10.0000     1.000e+15    1.000e+15     10.0000      10.0000 



 subckt       xdffout_     xdffout_     xdffout_     xdffout_     xdffout_
 element   95:g1        96:g1       102:g1       103:g1       104:g1      
  r value    1.000e+15    1.000e+15     10.0000      10.0000     1.000e+15



 subckt       xdffout_     xdffout_     xdffout_     xdffout_     xdffout_
 element  105:g1       111:g1       112:g1       113:g1       114:g1      
  r value    1.000e+15     10.0000      10.0000     1.000e+15    1.000e+15



 subckt       xdffout_     xdffout_     xdffout_     xdffout_     xdffout_
 element  120:g1       121:g1       122:g1       123:g1       129:g1      
  r value     10.0000      10.0000     1.000e+15    1.000e+15     10.0000 



 subckt       xdffout_     xdffout_     xdffout_     xi42.xn1     xi42.xi9
 element  130:g1       131:g1       132:g1       137:g1       138:g1      
  r value     10.0000     1.000e+15    1.000e+15    1.000e+15    1.000e+15



 subckt       xi42.xp1     xi42.xi1     xi59.xn1     xi59.xi9     xi59.xp1
 element  139:g1       140:g1       141:g1       142:g1       143:g1      
  r value     10.0000      10.0000      10.0000     1.000e+15     10.0000 



 subckt       xi59.xi1     xi37.xn1     xi37.xi9     xi37.xp1     xi37.xi1
 element  144:g1       145:g1       146:g1       147:g1       148:g1      
  r value    1.000e+15     10.0000      10.0000     1.000e+15    1.000e+15



 subckt       xi55.xn1     xi55.xi9     xi55.xp1     xi55.xi1     xi7.xn1 
 element  149:g1       150:g1       151:g1       152:g1       153:g1      
  r value    1.000e+15    1.000e+15     10.0000      10.0000     1.000e+15



 subckt       xi7.xi9      xi7.xp1      xi7.xi10     xi45.xp1     xi45.xn1
 element  154:g1       155:g1       156:g1       157:g1       158:g1      
  r value     10.0000     1.000e+15     10.0000      10.0000     1.000e+15



 subckt       xi63.xp1     xi63.xn1     xi5.xp1      xi5.xn1      xi43.xp1
 element  159:g1       160:g1       161:g1       162:g1       163:g1      
  r value     10.0000     1.000e+15     10.0000     1.000e+15     10.0000 



 subckt       xi43.xn1     xi44.xp1     xi44.xn1     xi58.xp1     xi58.xn1
 element  164:g1       165:g1       166:g1       167:g1       168:g1      
  r value    1.000e+15    1.000e+15     10.0000      10.0000     1.000e+15



 subckt       xi60.xp1     xi60.xn1     xi41.xp1     xi41.xn1     xi57.xp1
 element  169:g1       170:g1       171:g1       172:g1       173:g1      
  r value    1.000e+15     10.0000      10.0000     1.000e+15    1.000e+15



 subckt       xi57.xn1     xi8.xp1      xi8.xn1      xi6.xp1      xi6.xn1 
 element  174:g1       175:g1       176:g1       177:g1       178:g1      
  r value     10.0000      10.0000     1.000e+15    1.000e+15     10.0000 



 subckt       xi49.xi2     xi49.xsw     xcmplatc     xcmplatc     xsa_logi
 element  181:g1       182:g1       185:g1       186:g1       188:g1      
  r value    1.000e+15     10.0000     1.000e+15     10.0000     1.000e+15



 subckt       xsa_logi     xsa_logi     xsa_logi     xsa_logi     xsa_logi
 element  189:g1       190:g1       191:g1       197:g1       198:g1      
  r value    1.000e+15     10.0000      10.0000     1.000e+15    1.000e+15



 subckt       xsa_logi     xsa_logi     xsa_logi     xsa_logi     xsa_logi
 element  199:g1       200:g1       206:g1       207:g1       208:g1      
  r value     10.0000      10.0000     1.000e+15    1.000e+15     10.0000 



 subckt       xsa_logi     xsa_logi     xsa_logi     xsa_logi     xsa_logi
 element  209:g1       215:g1       216:g1       217:g1       218:g1      
  r value     10.0000     1.000e+15    1.000e+15     10.0000      10.0000 



 subckt       xsa_logi     xsa_logi     xsa_logi     xsa_logi     xsa_logi
 element  224:g1       225:g1       226:g1       227:g1       233:g1      
  r value    1.000e+15    1.000e+15     10.0000      10.0000     1.000e+15



 subckt       xsa_logi     xsa_logi     xsa_logi     xsa_logi     xsa_logi
 element  234:g1       235:g1       236:g1       242:g1       243:g1      
  r value    1.000e+15     10.0000      10.0000     1.000e+15    1.000e+15



 subckt       xsa_logi     xsa_logi     xdffout_     xdffout_     xdffout_
 element  244:g1       245:g1       250:g1       251:g1       252:g1      
  r value     10.0000      10.0000      10.0000     1.000e+15     10.0000 



 subckt       xdffout_     xdffout_     xdffout_     xdffout_     xdffout_
 element  253:g1       254:g1       255:g1       256:g1       257:g1      
  r value    1.000e+15     10.0000     1.000e+15     10.0000     1.000e+15



 subckt       xdffout_     xdffout_     xdffout_     xdffout_     xdffout_
 element  258:g1       259:g1       260:g1       261:g1       262:g1      
  r value     10.0000     1.000e+15    1.000e+15    1.000e+15     10.0000 



 subckt       xdffout_     xdffout_     xdffout_     xdffout_     xdffout_
 element  263:g1       264:g1       265:g1       266:g1       267:g1      
  r value     10.0000     1.000e+15    1.000e+15     10.0000      10.0000 



 subckt       xdffout_     xdffout_     xdffout_     xdffout_     xdffout_
 element  268:g1       269:g1       270:g1       271:g1       272:g1      
  r value     10.0000     1.000e+15     10.0000     1.000e+15     10.0000 



 subckt       xdffout_     xdffout_     xdffout_     xdffout_     xdffout_
 element  273:g1       274:g1       275:g1       276:g1       277:g1      
  r value    1.000e+15     10.0000     1.000e+15     10.0000     1.000e+15



 subckt       xdffout_     xdffout_     xdffout_     xdffout_     xdffout_
 element  278:g1       279:g1       280:g1       281:g1       282:g1      
  r value    1.000e+15    1.000e+15     10.0000      10.0000     1.000e+15



 subckt       xdffout_     xdffout_     xdffout_     xdffout_     xdffout_
 element  283:g1       284:g1       285:g1       286:g1       287:g1      
  r value    1.000e+15     10.0000      10.0000      10.0000     1.000e+15



 subckt       xdffout_     xdffout_     xdffout_     xdffout_     xdffout_
 element  288:g1       289:g1       290:g1       291:g1       292:g1      
  r value     10.0000     1.000e+15     10.0000     1.000e+15     10.0000 



 subckt       xdffout_     xdffout_     xdffout_     xdffout_     xdffout_
 element  293:g1       294:g1       295:g1       296:g1       297:g1      
  r value    1.000e+15     10.0000     1.000e+15    1.000e+15    1.000e+15



 subckt       xdffout_     xdffout_     xdffout_     xdffout_     xdffout_
 element  298:g1       299:g1       300:g1       301:g1       302:g1      
  r value     10.0000      10.0000     1.000e+15    1.000e+15     10.0000 



 subckt       xdffout_     xdffout_     xdffout_     xdffout_     xdffout_
 element  303:g1       304:g1       305:g1       306:g1       307:g1      
  r value     10.0000      10.0000     1.000e+15     10.0000     1.000e+15



 subckt       xdffout_     xdffout_     xdffout_     xdffout_     xdffout_
 element  308:g1       309:g1       310:g1       311:g1       312:g1      
  r value     10.0000     1.000e+15     10.0000     1.000e+15     10.0000 



 subckt       xdffout_     xdffout_     xdffout_     xdffout_     xdffout_
 element  313:g1       314:g1       315:g1       316:g1       317:g1      
  r value    1.000e+15    1.000e+15    1.000e+15     10.0000      10.0000 



 subckt       xdffout_     xdffout_     xdffout_     xdffout_     xdffout_
 element  318:g1       319:g1       320:g1       321:g1       322:g1      
  r value    1.000e+15    1.000e+15     10.0000      10.0000      10.0000 



 subckt       xdffout_     xdffout_     xdffout_     xdffout_     xdffout_
 element  323:g1       324:g1       325:g1       326:g1       327:g1      
  r value    1.000e+15     10.0000     1.000e+15     10.0000     1.000e+15



 subckt       xdffout_     xdffout_     xdffout_     xdffout_     xdffout_
 element  328:g1       329:g1       330:g1       331:g1       332:g1      
  r value     10.0000     1.000e+15     10.0000     1.000e+15    1.000e+15



 subckt       xdffout_     xdffout_     xdffout_     xdffout_     xdffout_
 element  333:g1       334:g1       335:g1       336:g1       337:g1      
  r value    1.000e+15     10.0000      10.0000     1.000e+15    1.000e+15



 subckt       xdffout_     xdffout_     xdffout_     xdffout_     xdffout_
 element  338:g1       339:g1       340:g1       341:g1       342:g1      
  r value     10.0000      10.0000      10.0000     1.000e+15     10.0000 



 subckt       xdffout_     xdffout_     xdffout_     xdffout_     xdffout_
 element  343:g1       344:g1       345:g1       346:g1       347:g1      
  r value    1.000e+15     10.0000     1.000e+15     10.0000     1.000e+15



 subckt       xdffout_     xdffout_     xdffout_     xdffout_     xdffout_
 element  348:g1       349:g1       350:g1       351:g1       352:g1      
  r value     10.0000     1.000e+15    1.000e+15    1.000e+15     10.0000 



 subckt       xdffout_     xdffout_     xdffout_     xdffout_     xdffout_
 element  353:g1       354:g1       355:g1       356:g1       357:g1      
  r value     10.0000     1.000e+15    1.000e+15     10.0000      10.0000 



 subckt       xdffout_     xdffout_     xdffout_     xdffout_     xdffout_
 element  358:g1       359:g1       360:g1       361:g1       362:g1      
  r value     10.0000     1.000e+15     10.0000     1.000e+15     10.0000 



 subckt       xdffout_     xdffout_     xdffout_     xdffout_     xdffout_
 element  363:g1       364:g1       365:g1       366:g1       367:g1      
  r value    1.000e+15     10.0000     1.000e+15     10.0000     1.000e+15



 subckt       xdffout_     xdffout_     xdffout_     xdffout_     xdffout_
 element  368:g1       369:g1       370:g1       371:g1       372:g1      
  r value    1.000e+15    1.000e+15     10.0000      10.0000     1.000e+15



 subckt       xdffout_     xdffout_     xdffout_     xdffout_     xdffout_
 element  373:g1       374:g1       375:g1       376:g1       377:g1      
  r value    1.000e+15     10.0000      10.0000      10.0000     1.000e+15



 subckt       xdffout_     xdffout_     xdffout_     xdffout_     xdffout_
 element  378:g1       379:g1       380:g1       381:g1       382:g1      
  r value     10.0000     1.000e+15     10.0000     1.000e+15     10.0000 



 subckt       xdffout_     xdffout_     xdffout_     xdffout_     xdffout_
 element  383:g1       384:g1       385:g1       386:g1       387:g1      
  r value    1.000e+15     10.0000     1.000e+15    1.000e+15    1.000e+15



 subckt       xdffout_     xdffout_     xdffout_     xdffout_     xdffout_
 element  388:g1       389:g1       390:g1       391:g1       392:g1      
  r value     10.0000      10.0000     1.000e+15    1.000e+15     10.0000 



 subckt       xdffout_     xi49.xi2     xi49.xi2     xi49.xi1     xi49.xi1
 element  393:g1       394:g1       395:g1       396:g1       397:g1      
  r value     10.0000     1.000e+15     10.0000      10.0000     1.000e+15



 subckt       xcmplatc     xcmplatc     xcmplatc     xcmplatc     xsa_logi
 element  398:g1       399:g1       400:g1       401:g1       402:g1      
  r value    1.000e+15     10.0000      10.0000     1.000e+15    1.000e+15



 subckt       xsa_logi     xsa_logi     xsa_logi     xsa_logi     xsa_logi
 element  403:g1       404:g1       405:g1       406:g1       407:g1      
  r value     10.0000      10.0000     1.000e+15     10.0000     1.000e+15



 subckt       xsa_logi     xsa_logi     xsa_logi     xsa_logi     xsa_logi
 element  408:g1       409:g1       410:g1       411:g1       412:g1      
  r value    1.000e+15    1.000e+15     10.0000      10.0000     1.000e+15



 subckt       xsa_logi     xsa_logi     xsa_logi     xsa_logi     xsa_logi
 element  413:g1       414:g1       415:g1       416:g1       417:g1      
  r value    1.000e+15     10.0000      10.0000      10.0000     1.000e+15



 subckt       xsa_logi     xsa_logi     xsa_logi     xsa_logi     xsa_logi
 element  418:g1       419:g1       420:g1       421:g1       422:g1      
  r value     10.0000     1.000e+15    1.000e+15     10.0000      10.0000 



 subckt       xsa_logi     xsa_logi     xsa_logi     xsa_logi     xsa_logi
 element  423:g1       424:g1       425:g1       426:g1       427:g1      
  r value    1.000e+15     10.0000     1.000e+15    1.000e+15    1.000e+15



 subckt       xsa_logi     xsa_logi     xsa_logi     xsa_logi     xsa_logi
 element  428:g1       429:g1       430:g1       431:g1       432:g1      
  r value     10.0000      10.0000     1.000e+15    1.000e+15     10.0000 



 subckt       xsa_logi     xsa_logi     xsa_logi     xsa_logi     xsa_logi
 element  433:g1       434:g1       435:g1       436:g1       437:g1      
  r value     10.0000      10.0000     1.000e+15     10.0000     1.000e+15



 subckt       xsa_logi     xsa_logi     xsa_logi     xsa_logi     xsa_logi
 element  438:g1       439:g1       440:g1       441:g1       442:g1      
  r value    1.000e+15     10.0000      10.0000     1.000e+15     10.0000 



 subckt       xsa_logi     xsa_logi     xsa_logi     xsa_logi     xsa_logi
 element  443:g1       444:g1       445:g1       446:g1       447:g1      
  r value    1.000e+15    1.000e+15    1.000e+15     10.0000      10.0000 



 subckt       xsa_logi     xsa_logi     xsa_logi     xsa_logi     xsa_logi
 element  448:g1       449:g1       450:g1       451:g1       452:g1      
  r value    1.000e+15    1.000e+15     10.0000      10.0000      10.0000 



 subckt       xsa_logi     xsa_logi     xsa_logi     xsa_logi     xsa_logi
 element  453:g1       454:g1       455:g1       456:g1       457:g1      
  r value    1.000e+15     10.0000     1.000e+15    1.000e+15     10.0000 



 subckt       xsa_logi     xsa_logi     xsa_logi     xsa_logi     xsa_logi
 element  458:g1       459:g1       460:g1       461:g1       462:g1      
  r value     10.0000     1.000e+15     10.0000     1.000e+15    1.000e+15



 subckt       xsa_logi     xsa_logi     xsa_logi     xsa_logi     xsa_logi
 element  463:g1       464:g1       465:g1       466:g1       467:g1      
  r value    1.000e+15     10.0000      10.0000     1.000e+15    1.000e+15



 subckt       xsa_logi     xsa_logi     xsa_logi     xsa_logi     xsa_logi
 element  468:g1       469:g1       470:g1       471:g1       472:g1      
  r value     10.0000      10.0000      10.0000     1.000e+15     10.0000 



 subckt       xsa_logi     xsa_logi     xsa_logi     xsa_logi     xsa_logi
 element  473:g1       474:g1       475:g1       476:g1       477:g1      
  r value    1.000e+15    1.000e+15     10.0000      10.0000     1.000e+15



 subckt       xsa_logi     xsa_logi     xsa_logi     xsa_logi     xsa_logi
 element  478:g1       479:g1       480:g1       481:g1       482:g1      
  r value     10.0000     1.000e+15    1.000e+15    1.000e+15     10.0000 



 subckt       xsa_logi     xsa_logi     xsa_logi     xsa_logi     xsa_logi
 element  483:g1       484:g1       485:g1       486:g1       487:g1      
  r value     10.0000     1.000e+15    1.000e+15     10.0000      10.0000 



 subckt       xsa_logi     xsa_logi     xsa_logi     xsa_logi     xsa_logi
 element  488:g1       489:g1       490:g1       491:g1       492:g1      
  r value     10.0000     1.000e+15     10.0000     1.000e+15    1.000e+15



 subckt       xsa_logi     xsa_logi     xsa_logi     xsa_logi     xsa_logi
 element  493:g1       494:g1       495:g1       496:g1       497:g1      
  r value     10.0000      10.0000     1.000e+15     10.0000     1.000e+15



 subckt       xsa_logi     xsa_logi     xsa_logi     xsa_logi     xsa_logi
 element  498:g1       499:g1       500:g1       501:g1       502:g1      
  r value    1.000e+15    1.000e+15     10.0000      10.0000     1.000e+15



 subckt       xsa_logi     xsa_logi     xsa_logi     xsa_logi     xsa_logi
 element  503:g1       504:g1       505:g1       506:g1       507:g1      
  r value    1.000e+15     10.0000      10.0000      10.0000     1.000e+15



 subckt       xsa_logi     xsa_logi     xsa_logi     xsa_logi     xsa_logi
 element  508:g1       509:g1       510:g1       511:g1       512:g1      
  r value     10.0000     1.000e+15    1.000e+15     10.0000      10.0000 



 subckt       xsa_logi     xsa_logi     xsa_logi     xsa_logi     xsa_logi
 element  513:g1       514:g1       515:g1       516:g1       517:g1      
  r value    1.000e+15     10.0000     1.000e+15    1.000e+15    1.000e+15



 subckt       xsa_logi     xsa_logi     xsa_logi     xsa_logi     xsa_logi
 element  518:g1       519:g1       520:g1       521:g1       522:g1      
  r value     10.0000      10.0000     1.000e+15    1.000e+15     10.0000 



 subckt       xsa_logi     xsa_logi     xsa_logi     xsa_logi     xsa_logi
 element  523:g1       524:g1       525:g1       526:g1       527:g1      
  r value     10.0000      10.0000     1.000e+15     10.0000     1.000e+15




 **** voltage-controlled voltage sources


 subckt                    xi46         xop          xop          xop     
 element    0:evcm1      2:evcvs     23:e1        23:ep        23:en      
  volts      500.0000m      0.         500.0000m    500.0000m    500.0000m
  current     -1.0000p      0.        -500.0000n   -500.4995f   -500.4995f



 lic: Reconnect to license server is done 

          ***** job concluded
 ******  
 np_1000

 ****** job statistics summary tnom=  25.000 temp=  60.000 ******

  ******  Circuit Statistics  ******
  # nodes       =     288 # elements   =    1830
  # resistors   =     890 # capacitors =     513 # inductors   =       0
  # mutual_inds =       0 # vccs       =     410 # vcvs        =       5
  # cccs        =       0 # ccvs       =       0 # volt_srcs   =      12
  # curr_srcs   =       0 # diodes     =       0 # bjts        =       0
  # jfets       =       0 # mosfets    =       0 # U elements  =       0
  # T elements  =       0 # W elements =       0 # B elements  =       0
  # S elements  =       0 # P elements =       0 # va device   =       0
  # vector_srcs =       0 # N elements =       0


  ******  Runtime Statistics (seconds)  ******

  analysis           time    # points   tot. iter  conv.iter
  op point           0.02           1          24
  transient       4511.93         101    34185504    14549314 rev=    800289
  readin             0.00
  errchk             0.01
  setup              0.01
  output             0.00


           peak memory used        320.79 megabytes
           total cpu time         4511.96 seconds
           total elapsed time     4555.04 seconds
           job started at     16:27:42 11/26/2019
           job ended   at     17:50:50 11/26/2019



>info:         ***** hspice job concluded
 lic: Release hspice token(s) 
 lic: total license checkout elapse time:        5.82(s)
