Using: /usr/cad/synopsys/hspice/cur/hspice/linux64/hspice bhv.sp
 ****** HSPICE -- O-2018.09 linux64 (Aug 26 2018) ******                        
  Copyright (c) 1986 - 2019 by Synopsys, Inc. All Rights Reserved.              
  This software and the associated documentation are proprietary
  to Synopsys, Inc. This software may only be used in accordance
  with the terms and conditions of a written license agreement with
  Synopsys, Inc. All other use, reproduction, or distribution of
  this software is strictly prohibited.
  Input File: bhv.sp                                                            
  Command line options: /usr/cad/synopsys/hspice/cur/hspice/linux64/hspice bhv.sp
 lic:  
 lic: FLEXlm: SDK_11.6.9.6 
 lic: USER:   ychuang              HOSTNAME: adc 
 lic: HOSTID: "b4969141dd1f"       PID:      93875 
 lic: Using FLEXlm license file: 
 lic: 26585@lsnctu 
 lic: Checkout 1 hspice 
 lic: License/Maintenance for hspice will expire on 14-may-2022/2018.09 
 lic: 171(in_use)/190(total) FLOATING license(s) on SERVER 26585@lsnctu 
 lic:   

 **warning** RUNLVL=0 option detected. RUNLVL=0 is automatically switched to RUNLVL=5 from Release H-2013.03-SP1. RUNLVL=0 is a legacy setting with poor runtime performance.


1****** HSPICE -- O-2018.09 linux64 (Aug 26 2018) ******                        
 ******  
 * idc_mod simulation

 ****** circuit name directory
 circuit number to circuit name directory
   number circuitname                     definition         multiplier
        0 main circuit
        1 xi24.                           sa_10bit_c_array_with_dac_trad
                                                                 1.00 
        2 xi23.                           sa_10bit_c_array_with_dac_trad
                                                                 1.00 
        3 xsa_logic.                      sa_logic_10bit     1.00 
        4 xcmp.                           vcvs_cmp           1.00 
        5 xdffout_9.                      dff_set_rst_schematic
                                                                 1.00 
        6 xdffout_8.                      dff_set_rst_schematic
                                                                 1.00 
        7 xdffout_7.                      dff_set_rst_schematic
                                                                 1.00 
        8 xdffout_6.                      dff_set_rst_schematic
                                                                 1.00 
        9 xdffout_5.                      dff_set_rst_schematic
                                                                 1.00 
       10 xdffout_4.                      dff_set_rst_schematic
                                                                 1.00 
       11 xdffout_3.                      dff_set_rst_schematic
                                                                 1.00 
       12 xdffout_2.                      dff_set_rst_schematic
                                                                 1.00 
       13 xdffout_1.                      dff_set_rst_schematic
                                                                 1.00 
       14 xdffout_0.                      dff_set_rst_schematic
                                                                 1.00 
       15 xi7.                            nand2_bhv          1.00 
       16 xi8.                            inv_bhv            1.00 
       17 xi6.                            inv_bhv            1.00 
       18 xi5.                            inv_bhv            1.00 
       19 xcmplatch.                      dlatch             1.00 
       20 xi24.xsa_dac.                   sa_dac_10bit       1.00 
       21 xi24.xswvcmp.                   tgb                1.00 
       22 xi23.xsa_dac.                   sa_dac_10bit       1.00 
       23 xi23.xswvcmp.                   tgb                1.00 
       24 xsa_logic.xdata9.               dff_set_rst        1.00 
       25 xsa_logic.xdata8.               dff_set_rst        1.00 
       26 xsa_logic.xrsh8.                dff_set_rst        1.00 
       27 xsa_logic.xrsh9.                dff_set_rst        1.00 
       28 xsa_logic.xrsh00.               dff_set_rst        1.00 
       29 xsa_logic.xdata3.               dff_set_rst        1.00 
       30 xsa_logic.xdata2.               dff_set_rst        1.00 
       31 xsa_logic.xdata1.               dff_set_rst        1.00 
       32 xsa_logic.xdata00.              dff_set_rst        1.00 
       33 xsa_logic.xdata0.               dff_set_rst        1.00 
       34 xsa_logic.xdata5.               dff_set_rst        1.00 
       35 xsa_logic.xrsh0.                dff_set_rst        1.00 
       36 xsa_logic.xrsh3.                dff_set_rst        1.00 
       37 xsa_logic.xrsh2.                dff_set_rst        1.00 
       38 xsa_logic.xrsh1.                dff_set_rst        1.00 
       39 xsa_logic.xrsh4.                dff_set_rst        1.00 
       40 xsa_logic.xdata7.               dff_set_rst        1.00 
       41 xsa_logic.xrsh5.                dff_set_rst        1.00 
       42 xsa_logic.xdata6.               dff_set_rst        1.00 
       43 xsa_logic.xdata4.               dff_set_rst        1.00 
       44 xsa_logic.xrsh6.                dff_set_rst        1.00 
       45 xsa_logic.xrsh7.                dff_set_rst        1.00 
       46 xdffout_9.xi1.                  inv_bhv            1.00 
       47 xdffout_9.xi40.                 tgb                1.00 
       48 xdffout_9.xi34.                 tgb                1.00 
       49 xdffout_9.xi41.                 tgb                1.00 
       50 xdffout_9.xsw1.                 tgb                1.00 
       51 xdffout_9.xi42.                 nor2_bhv           1.00 
       52 xdffout_9.xi43.                 nor2_bhv           1.00 
       53 xdffout_9.xi31.                 nor2_bhv           1.00 
       54 xdffout_9.xi37.                 nor2_bhv           1.00 
       55 xdffout_8.xi1.                  inv_bhv            1.00 
       56 xdffout_8.xi40.                 tgb                1.00 
       57 xdffout_8.xi34.                 tgb                1.00 
       58 xdffout_8.xi41.                 tgb                1.00 
       59 xdffout_8.xsw1.                 tgb                1.00 
       60 xdffout_8.xi42.                 nor2_bhv           1.00 
       61 xdffout_8.xi43.                 nor2_bhv           1.00 
       62 xdffout_8.xi31.                 nor2_bhv           1.00 
       63 xdffout_8.xi37.                 nor2_bhv           1.00 
       64 xdffout_7.xi1.                  inv_bhv            1.00 
       65 xdffout_7.xi40.                 tgb                1.00 
       66 xdffout_7.xi34.                 tgb                1.00 
       67 xdffout_7.xi41.                 tgb                1.00 
       68 xdffout_7.xsw1.                 tgb                1.00 
       69 xdffout_7.xi42.                 nor2_bhv           1.00 
       70 xdffout_7.xi43.                 nor2_bhv           1.00 
       71 xdffout_7.xi31.                 nor2_bhv           1.00 
       72 xdffout_7.xi37.                 nor2_bhv           1.00 
       73 xdffout_6.xi1.                  inv_bhv            1.00 
       74 xdffout_6.xi40.                 tgb                1.00 
       75 xdffout_6.xi34.                 tgb                1.00 
       76 xdffout_6.xi41.                 tgb                1.00 
       77 xdffout_6.xsw1.                 tgb                1.00 
       78 xdffout_6.xi42.                 nor2_bhv           1.00 
       79 xdffout_6.xi43.                 nor2_bhv           1.00 
       80 xdffout_6.xi31.                 nor2_bhv           1.00 
       81 xdffout_6.xi37.                 nor2_bhv           1.00 
       82 xdffout_5.xi1.                  inv_bhv            1.00 
       83 xdffout_5.xi40.                 tgb                1.00 
       84 xdffout_5.xi34.                 tgb                1.00 
       85 xdffout_5.xi41.                 tgb                1.00 
       86 xdffout_5.xsw1.                 tgb                1.00 
       87 xdffout_5.xi42.                 nor2_bhv           1.00 
       88 xdffout_5.xi43.                 nor2_bhv           1.00 
       89 xdffout_5.xi31.                 nor2_bhv           1.00 
       90 xdffout_5.xi37.                 nor2_bhv           1.00 
       91 xdffout_4.xi1.                  inv_bhv            1.00 
       92 xdffout_4.xi40.                 tgb                1.00 
       93 xdffout_4.xi34.                 tgb                1.00 
       94 xdffout_4.xi41.                 tgb                1.00 
       95 xdffout_4.xsw1.                 tgb                1.00 
       96 xdffout_4.xi42.                 nor2_bhv           1.00 
       97 xdffout_4.xi43.                 nor2_bhv           1.00 
       98 xdffout_4.xi31.                 nor2_bhv           1.00 
       99 xdffout_4.xi37.                 nor2_bhv           1.00 
      100 xdffout_3.xi1.                  inv_bhv            1.00 
      101 xdffout_3.xi40.                 tgb                1.00 
      102 xdffout_3.xi34.                 tgb                1.00 
      103 xdffout_3.xi41.                 tgb                1.00 
      104 xdffout_3.xsw1.                 tgb                1.00 
      105 xdffout_3.xi42.                 nor2_bhv           1.00 
      106 xdffout_3.xi43.                 nor2_bhv           1.00 
      107 xdffout_3.xi31.                 nor2_bhv           1.00 
      108 xdffout_3.xi37.                 nor2_bhv           1.00 
      109 xdffout_2.xi1.                  inv_bhv            1.00 
      110 xdffout_2.xi40.                 tgb                1.00 
      111 xdffout_2.xi34.                 tgb                1.00 
      112 xdffout_2.xi41.                 tgb                1.00 
      113 xdffout_2.xsw1.                 tgb                1.00 
      114 xdffout_2.xi42.                 nor2_bhv           1.00 
      115 xdffout_2.xi43.                 nor2_bhv           1.00 
      116 xdffout_2.xi31.                 nor2_bhv           1.00 
      117 xdffout_2.xi37.                 nor2_bhv           1.00 
      118 xdffout_1.xi1.                  inv_bhv            1.00 
      119 xdffout_1.xi40.                 tgb                1.00 
      120 xdffout_1.xi34.                 tgb                1.00 
      121 xdffout_1.xi41.                 tgb                1.00 
      122 xdffout_1.xsw1.                 tgb                1.00 
      123 xdffout_1.xi42.                 nor2_bhv           1.00 
      124 xdffout_1.xi43.                 nor2_bhv           1.00 
      125 xdffout_1.xi31.                 nor2_bhv           1.00 
      126 xdffout_1.xi37.                 nor2_bhv           1.00 
      127 xdffout_0.xi1.                  inv_bhv            1.00 
      128 xdffout_0.xi40.                 tgb                1.00 
      129 xdffout_0.xi34.                 tgb                1.00 
      130 xdffout_0.xi41.                 tgb                1.00 
      131 xdffout_0.xsw1.                 tgb                1.00 
      132 xdffout_0.xi42.                 nor2_bhv           1.00 
      133 xdffout_0.xi43.                 nor2_bhv           1.00 
      134 xdffout_0.xi31.                 nor2_bhv           1.00 
      135 xdffout_0.xi37.                 nor2_bhv           1.00 
      136 xi7.xn1.                        nmos_b             1.00 
      137 xi7.xi9.                        nmos_b             1.00 
      138 xi7.xp1.                        pmos_b             1.00 
      139 xi7.xi10.                       pmos_b             1.00 
      140 xi8.xp1.                        pmos_b             1.00 
      141 xi8.xn1.                        nmos_b             1.00 
      142 xi6.xp1.                        pmos_b             1.00 
      143 xi6.xn1.                        nmos_b             1.00 
      144 xi5.xp1.                        pmos_b             1.00 
      145 xi5.xn1.                        nmos_b             1.00 
      146 xcmplatch.xi2.                  inv_bhv            1.00 
      147 xcmplatch.xi1.                  inv_bhv            1.00 
      148 xcmplatch.xi29.                 tgb                1.00 
      149 xcmplatch.xsw1.                 tgb                1.00 
      150 xi24.xsa_dac.xswdac_0.          dac_sw             1.00 
      151 xi24.xsa_dac.xswdac_1.          dac_sw             1.00 
      152 xi24.xsa_dac.xswdac_2.          dac_sw             1.00 
      153 xi24.xsa_dac.xswdac_3.          dac_sw             1.00 
      154 xi24.xsa_dac.xswdac_4.          dac_sw             1.00 
      155 xi24.xsa_dac.xswdac_5.          dac_sw             1.00 
      156 xi24.xsa_dac.xswdac_6.          dac_sw             1.00 
      157 xi24.xsa_dac.xswdac_7.          dac_sw             1.00 
      158 xi24.xsa_dac.xswdac_8.          dac_sw             1.00 
      159 xi24.xsa_dac.xswdac_9.          dac_sw             1.00 
      160 xi24.xsa_dac.xi1.               inv_bhv            1.00 
      161 xi24.xsa_dac.xswdac00.          tgb                1.00 
      162 xi24.xsa_dac.xswvin.            tgb                1.00 
      163 xi23.xsa_dac.xswdac_0.          dac_sw             1.00 
      164 xi23.xsa_dac.xswdac_1.          dac_sw             1.00 
      165 xi23.xsa_dac.xswdac_2.          dac_sw             1.00 
      166 xi23.xsa_dac.xswdac_3.          dac_sw             1.00 
      167 xi23.xsa_dac.xswdac_4.          dac_sw             1.00 
      168 xi23.xsa_dac.xswdac_5.          dac_sw             1.00 
      169 xi23.xsa_dac.xswdac_6.          dac_sw             1.00 
      170 xi23.xsa_dac.xswdac_7.          dac_sw             1.00 
      171 xi23.xsa_dac.xswdac_8.          dac_sw             1.00 
      172 xi23.xsa_dac.xswdac_9.          dac_sw             1.00 
      173 xi23.xsa_dac.xi1.               inv_bhv            1.00 
      174 xi23.xsa_dac.xswdac00.          tgb                1.00 
      175 xi23.xsa_dac.xswvin.            tgb                1.00 
      176 xsa_logic.xdata9.xi1.           inv_bhv            1.00 
      177 xsa_logic.xdata9.xi40.          tgb                1.00 
      178 xsa_logic.xdata9.xi34.          tgb                1.00 
      179 xsa_logic.xdata9.xi41.          tgb                1.00 
      180 xsa_logic.xdata9.xsw1.          tgb                1.00 
      181 xsa_logic.xdata9.xi42.          nor2_bhv           1.00 
      182 xsa_logic.xdata9.xi43.          nor2_bhv           1.00 
      183 xsa_logic.xdata9.xi31.          nor2_bhv           1.00 
      184 xsa_logic.xdata9.xi37.          nor2_bhv           1.00 
      185 xsa_logic.xdata8.xi1.           inv_bhv            1.00 
      186 xsa_logic.xdata8.xi40.          tgb                1.00 
      187 xsa_logic.xdata8.xi34.          tgb                1.00 
      188 xsa_logic.xdata8.xi41.          tgb                1.00 
      189 xsa_logic.xdata8.xsw1.          tgb                1.00 
      190 xsa_logic.xdata8.xi42.          nor2_bhv           1.00 
      191 xsa_logic.xdata8.xi43.          nor2_bhv           1.00 
      192 xsa_logic.xdata8.xi31.          nor2_bhv           1.00 
      193 xsa_logic.xdata8.xi37.          nor2_bhv           1.00 
      194 xsa_logic.xrsh8.xi1.            inv_bhv            1.00 
      195 xsa_logic.xrsh8.xi40.           tgb                1.00 
      196 xsa_logic.xrsh8.xi34.           tgb                1.00 
      197 xsa_logic.xrsh8.xi41.           tgb                1.00 
      198 xsa_logic.xrsh8.xsw1.           tgb                1.00 
      199 xsa_logic.xrsh8.xi42.           nor2_bhv           1.00 
      200 xsa_logic.xrsh8.xi43.           nor2_bhv           1.00 
      201 xsa_logic.xrsh8.xi31.           nor2_bhv           1.00 
      202 xsa_logic.xrsh8.xi37.           nor2_bhv           1.00 
      203 xsa_logic.xrsh9.xi1.            inv_bhv            1.00 
      204 xsa_logic.xrsh9.xi40.           tgb                1.00 
      205 xsa_logic.xrsh9.xi34.           tgb                1.00 
      206 xsa_logic.xrsh9.xi41.           tgb                1.00 
      207 xsa_logic.xrsh9.xsw1.           tgb                1.00 
      208 xsa_logic.xrsh9.xi42.           nor2_bhv           1.00 
      209 xsa_logic.xrsh9.xi43.           nor2_bhv           1.00 
      210 xsa_logic.xrsh9.xi31.           nor2_bhv           1.00 
      211 xsa_logic.xrsh9.xi37.           nor2_bhv           1.00 
      212 xsa_logic.xrsh00.xi1.           inv_bhv            1.00 
      213 xsa_logic.xrsh00.xi40.          tgb                1.00 
      214 xsa_logic.xrsh00.xi34.          tgb                1.00 
      215 xsa_logic.xrsh00.xi41.          tgb                1.00 
      216 xsa_logic.xrsh00.xsw1.          tgb                1.00 
      217 xsa_logic.xrsh00.xi42.          nor2_bhv           1.00 
      218 xsa_logic.xrsh00.xi43.          nor2_bhv           1.00 
      219 xsa_logic.xrsh00.xi31.          nor2_bhv           1.00 
      220 xsa_logic.xrsh00.xi37.          nor2_bhv           1.00 
      221 xsa_logic.xdata3.xi1.           inv_bhv            1.00 
      222 xsa_logic.xdata3.xi40.          tgb                1.00 
      223 xsa_logic.xdata3.xi34.          tgb                1.00 
      224 xsa_logic.xdata3.xi41.          tgb                1.00 
      225 xsa_logic.xdata3.xsw1.          tgb                1.00 
      226 xsa_logic.xdata3.xi42.          nor2_bhv           1.00 
      227 xsa_logic.xdata3.xi43.          nor2_bhv           1.00 
      228 xsa_logic.xdata3.xi31.          nor2_bhv           1.00 
      229 xsa_logic.xdata3.xi37.          nor2_bhv           1.00 
      230 xsa_logic.xdata2.xi1.           inv_bhv            1.00 
      231 xsa_logic.xdata2.xi40.          tgb                1.00 
      232 xsa_logic.xdata2.xi34.          tgb                1.00 
      233 xsa_logic.xdata2.xi41.          tgb                1.00 
      234 xsa_logic.xdata2.xsw1.          tgb                1.00 
      235 xsa_logic.xdata2.xi42.          nor2_bhv           1.00 
      236 xsa_logic.xdata2.xi43.          nor2_bhv           1.00 
      237 xsa_logic.xdata2.xi31.          nor2_bhv           1.00 
      238 xsa_logic.xdata2.xi37.          nor2_bhv           1.00 
      239 xsa_logic.xdata1.xi1.           inv_bhv            1.00 
      240 xsa_logic.xdata1.xi40.          tgb                1.00 
      241 xsa_logic.xdata1.xi34.          tgb                1.00 
      242 xsa_logic.xdata1.xi41.          tgb                1.00 
      243 xsa_logic.xdata1.xsw1.          tgb                1.00 
      244 xsa_logic.xdata1.xi42.          nor2_bhv           1.00 
      245 xsa_logic.xdata1.xi43.          nor2_bhv           1.00 
      246 xsa_logic.xdata1.xi31.          nor2_bhv           1.00 
      247 xsa_logic.xdata1.xi37.          nor2_bhv           1.00 
      248 xsa_logic.xdata00.xi1.          inv_bhv            1.00 
      249 xsa_logic.xdata00.xi40.         tgb                1.00 
      250 xsa_logic.xdata00.xi34.         tgb                1.00 
      251 xsa_logic.xdata00.xi41.         tgb                1.00 
      252 xsa_logic.xdata00.xsw1.         tgb                1.00 
      253 xsa_logic.xdata00.xi42.         nor2_bhv           1.00 
      254 xsa_logic.xdata00.xi43.         nor2_bhv           1.00 
      255 xsa_logic.xdata00.xi31.         nor2_bhv           1.00 
      256 xsa_logic.xdata00.xi37.         nor2_bhv           1.00 
      257 xsa_logic.xdata0.xi1.           inv_bhv            1.00 
      258 xsa_logic.xdata0.xi40.          tgb                1.00 
      259 xsa_logic.xdata0.xi34.          tgb                1.00 
      260 xsa_logic.xdata0.xi41.          tgb                1.00 
      261 xsa_logic.xdata0.xsw1.          tgb                1.00 
      262 xsa_logic.xdata0.xi42.          nor2_bhv           1.00 
      263 xsa_logic.xdata0.xi43.          nor2_bhv           1.00 
      264 xsa_logic.xdata0.xi31.          nor2_bhv           1.00 
      265 xsa_logic.xdata0.xi37.          nor2_bhv           1.00 
      266 xsa_logic.xdata5.xi1.           inv_bhv            1.00 
      267 xsa_logic.xdata5.xi40.          tgb                1.00 
      268 xsa_logic.xdata5.xi34.          tgb                1.00 
      269 xsa_logic.xdata5.xi41.          tgb                1.00 
      270 xsa_logic.xdata5.xsw1.          tgb                1.00 
      271 xsa_logic.xdata5.xi42.          nor2_bhv           1.00 
      272 xsa_logic.xdata5.xi43.          nor2_bhv           1.00 
      273 xsa_logic.xdata5.xi31.          nor2_bhv           1.00 
      274 xsa_logic.xdata5.xi37.          nor2_bhv           1.00 
      275 xsa_logic.xrsh0.xi1.            inv_bhv            1.00 
      276 xsa_logic.xrsh0.xi40.           tgb                1.00 
      277 xsa_logic.xrsh0.xi34.           tgb                1.00 
      278 xsa_logic.xrsh0.xi41.           tgb                1.00 
      279 xsa_logic.xrsh0.xsw1.           tgb                1.00 
      280 xsa_logic.xrsh0.xi42.           nor2_bhv           1.00 
      281 xsa_logic.xrsh0.xi43.           nor2_bhv           1.00 
      282 xsa_logic.xrsh0.xi31.           nor2_bhv           1.00 
      283 xsa_logic.xrsh0.xi37.           nor2_bhv           1.00 
      284 xsa_logic.xrsh3.xi1.            inv_bhv            1.00 
      285 xsa_logic.xrsh3.xi40.           tgb                1.00 
      286 xsa_logic.xrsh3.xi34.           tgb                1.00 
      287 xsa_logic.xrsh3.xi41.           tgb                1.00 
      288 xsa_logic.xrsh3.xsw1.           tgb                1.00 
      289 xsa_logic.xrsh3.xi42.           nor2_bhv           1.00 
      290 xsa_logic.xrsh3.xi43.           nor2_bhv           1.00 
      291 xsa_logic.xrsh3.xi31.           nor2_bhv           1.00 
      292 xsa_logic.xrsh3.xi37.           nor2_bhv           1.00 
      293 xsa_logic.xrsh2.xi1.            inv_bhv            1.00 
      294 xsa_logic.xrsh2.xi40.           tgb                1.00 
      295 xsa_logic.xrsh2.xi34.           tgb                1.00 
      296 xsa_logic.xrsh2.xi41.           tgb                1.00 
      297 xsa_logic.xrsh2.xsw1.           tgb                1.00 
      298 xsa_logic.xrsh2.xi42.           nor2_bhv           1.00 
      299 xsa_logic.xrsh2.xi43.           nor2_bhv           1.00 
      300 xsa_logic.xrsh2.xi31.           nor2_bhv           1.00 
      301 xsa_logic.xrsh2.xi37.           nor2_bhv           1.00 
      302 xsa_logic.xrsh1.xi1.            inv_bhv            1.00 
      303 xsa_logic.xrsh1.xi40.           tgb                1.00 
      304 xsa_logic.xrsh1.xi34.           tgb                1.00 
      305 xsa_logic.xrsh1.xi41.           tgb                1.00 
      306 xsa_logic.xrsh1.xsw1.           tgb                1.00 
      307 xsa_logic.xrsh1.xi42.           nor2_bhv           1.00 
      308 xsa_logic.xrsh1.xi43.           nor2_bhv           1.00 
      309 xsa_logic.xrsh1.xi31.           nor2_bhv           1.00 
      310 xsa_logic.xrsh1.xi37.           nor2_bhv           1.00 
      311 xsa_logic.xrsh4.xi1.            inv_bhv            1.00 
      312 xsa_logic.xrsh4.xi40.           tgb                1.00 
      313 xsa_logic.xrsh4.xi34.           tgb                1.00 
      314 xsa_logic.xrsh4.xi41.           tgb                1.00 
      315 xsa_logic.xrsh4.xsw1.           tgb                1.00 
      316 xsa_logic.xrsh4.xi42.           nor2_bhv           1.00 
      317 xsa_logic.xrsh4.xi43.           nor2_bhv           1.00 
      318 xsa_logic.xrsh4.xi31.           nor2_bhv           1.00 
      319 xsa_logic.xrsh4.xi37.           nor2_bhv           1.00 
      320 xsa_logic.xdata7.xi1.           inv_bhv            1.00 
      321 xsa_logic.xdata7.xi40.          tgb                1.00 
      322 xsa_logic.xdata7.xi34.          tgb                1.00 
      323 xsa_logic.xdata7.xi41.          tgb                1.00 
      324 xsa_logic.xdata7.xsw1.          tgb                1.00 
      325 xsa_logic.xdata7.xi42.          nor2_bhv           1.00 
      326 xsa_logic.xdata7.xi43.          nor2_bhv           1.00 
      327 xsa_logic.xdata7.xi31.          nor2_bhv           1.00 
      328 xsa_logic.xdata7.xi37.          nor2_bhv           1.00 
      329 xsa_logic.xrsh5.xi1.            inv_bhv            1.00 
      330 xsa_logic.xrsh5.xi40.           tgb                1.00 
      331 xsa_logic.xrsh5.xi34.           tgb                1.00 
      332 xsa_logic.xrsh5.xi41.           tgb                1.00 
      333 xsa_logic.xrsh5.xsw1.           tgb                1.00 
      334 xsa_logic.xrsh5.xi42.           nor2_bhv           1.00 
      335 xsa_logic.xrsh5.xi43.           nor2_bhv           1.00 
      336 xsa_logic.xrsh5.xi31.           nor2_bhv           1.00 
      337 xsa_logic.xrsh5.xi37.           nor2_bhv           1.00 
      338 xsa_logic.xdata6.xi1.           inv_bhv            1.00 
      339 xsa_logic.xdata6.xi40.          tgb                1.00 
      340 xsa_logic.xdata6.xi34.          tgb                1.00 
      341 xsa_logic.xdata6.xi41.          tgb                1.00 
      342 xsa_logic.xdata6.xsw1.          tgb                1.00 
      343 xsa_logic.xdata6.xi42.          nor2_bhv           1.00 
      344 xsa_logic.xdata6.xi43.          nor2_bhv           1.00 
      345 xsa_logic.xdata6.xi31.          nor2_bhv           1.00 
      346 xsa_logic.xdata6.xi37.          nor2_bhv           1.00 
      347 xsa_logic.xdata4.xi1.           inv_bhv            1.00 
      348 xsa_logic.xdata4.xi40.          tgb                1.00 
      349 xsa_logic.xdata4.xi34.          tgb                1.00 
      350 xsa_logic.xdata4.xi41.          tgb                1.00 
      351 xsa_logic.xdata4.xsw1.          tgb                1.00 
      352 xsa_logic.xdata4.xi42.          nor2_bhv           1.00 
      353 xsa_logic.xdata4.xi43.          nor2_bhv           1.00 
      354 xsa_logic.xdata4.xi31.          nor2_bhv           1.00 
      355 xsa_logic.xdata4.xi37.          nor2_bhv           1.00 
      356 xsa_logic.xrsh6.xi1.            inv_bhv            1.00 
      357 xsa_logic.xrsh6.xi40.           tgb                1.00 
      358 xsa_logic.xrsh6.xi34.           tgb                1.00 
      359 xsa_logic.xrsh6.xi41.           tgb                1.00 
      360 xsa_logic.xrsh6.xsw1.           tgb                1.00 
      361 xsa_logic.xrsh6.xi42.           nor2_bhv           1.00 
      362 xsa_logic.xrsh6.xi43.           nor2_bhv           1.00 
      363 xsa_logic.xrsh6.xi31.           nor2_bhv           1.00 
      364 xsa_logic.xrsh6.xi37.           nor2_bhv           1.00 
      365 xsa_logic.xrsh7.xi1.            inv_bhv            1.00 
      366 xsa_logic.xrsh7.xi40.           tgb                1.00 
      367 xsa_logic.xrsh7.xi34.           tgb                1.00 
      368 xsa_logic.xrsh7.xi41.           tgb                1.00 
      369 xsa_logic.xrsh7.xsw1.           tgb                1.00 
      370 xsa_logic.xrsh7.xi42.           nor2_bhv           1.00 
      371 xsa_logic.xrsh7.xi43.           nor2_bhv           1.00 
      372 xsa_logic.xrsh7.xi31.           nor2_bhv           1.00 
      373 xsa_logic.xrsh7.xi37.           nor2_bhv           1.00 
      374 xdffout_9.xi1.xp1.              pmos_b             1.00 
      375 xdffout_9.xi1.xn1.              nmos_b             1.00 
      376 xdffout_9.xi42.xn1.             nmos_b             1.00 
      377 xdffout_9.xi42.xi9.             nmos_b             1.00 
      378 xdffout_9.xi42.xp1.             pmos_b             1.00 
      379 xdffout_9.xi42.xi10.            pmos_b             1.00 
      380 xdffout_9.xi43.xn1.             nmos_b             1.00 
      381 xdffout_9.xi43.xi9.             nmos_b             1.00 
      382 xdffout_9.xi43.xp1.             pmos_b             1.00 
      383 xdffout_9.xi43.xi10.            pmos_b             1.00 
      384 xdffout_9.xi31.xn1.             nmos_b             1.00 
      385 xdffout_9.xi31.xi9.             nmos_b             1.00 
      386 xdffout_9.xi31.xp1.             pmos_b             1.00 
      387 xdffout_9.xi31.xi10.            pmos_b             1.00 
      388 xdffout_9.xi37.xn1.             nmos_b             1.00 
      389 xdffout_9.xi37.xi9.             nmos_b             1.00 
      390 xdffout_9.xi37.xp1.             pmos_b             1.00 
      391 xdffout_9.xi37.xi10.            pmos_b             1.00 
      392 xdffout_8.xi1.xp1.              pmos_b             1.00 
      393 xdffout_8.xi1.xn1.              nmos_b             1.00 
      394 xdffout_8.xi42.xn1.             nmos_b             1.00 
      395 xdffout_8.xi42.xi9.             nmos_b             1.00 
      396 xdffout_8.xi42.xp1.             pmos_b             1.00 
      397 xdffout_8.xi42.xi10.            pmos_b             1.00 
      398 xdffout_8.xi43.xn1.             nmos_b             1.00 
      399 xdffout_8.xi43.xi9.             nmos_b             1.00 
      400 xdffout_8.xi43.xp1.             pmos_b             1.00 
      401 xdffout_8.xi43.xi10.            pmos_b             1.00 
      402 xdffout_8.xi31.xn1.             nmos_b             1.00 
      403 xdffout_8.xi31.xi9.             nmos_b             1.00 
      404 xdffout_8.xi31.xp1.             pmos_b             1.00 
      405 xdffout_8.xi31.xi10.            pmos_b             1.00 
      406 xdffout_8.xi37.xn1.             nmos_b             1.00 
      407 xdffout_8.xi37.xi9.             nmos_b             1.00 
      408 xdffout_8.xi37.xp1.             pmos_b             1.00 
      409 xdffout_8.xi37.xi10.            pmos_b             1.00 
      410 xdffout_7.xi1.xp1.              pmos_b             1.00 
      411 xdffout_7.xi1.xn1.              nmos_b             1.00 
      412 xdffout_7.xi42.xn1.             nmos_b             1.00 
      413 xdffout_7.xi42.xi9.             nmos_b             1.00 
      414 xdffout_7.xi42.xp1.             pmos_b             1.00 
      415 xdffout_7.xi42.xi10.            pmos_b             1.00 
      416 xdffout_7.xi43.xn1.             nmos_b             1.00 
      417 xdffout_7.xi43.xi9.             nmos_b             1.00 
      418 xdffout_7.xi43.xp1.             pmos_b             1.00 
      419 xdffout_7.xi43.xi10.            pmos_b             1.00 
      420 xdffout_7.xi31.xn1.             nmos_b             1.00 
      421 xdffout_7.xi31.xi9.             nmos_b             1.00 
      422 xdffout_7.xi31.xp1.             pmos_b             1.00 
      423 xdffout_7.xi31.xi10.            pmos_b             1.00 
      424 xdffout_7.xi37.xn1.             nmos_b             1.00 
      425 xdffout_7.xi37.xi9.             nmos_b             1.00 
      426 xdffout_7.xi37.xp1.             pmos_b             1.00 
      427 xdffout_7.xi37.xi10.            pmos_b             1.00 
      428 xdffout_6.xi1.xp1.              pmos_b             1.00 
      429 xdffout_6.xi1.xn1.              nmos_b             1.00 
      430 xdffout_6.xi42.xn1.             nmos_b             1.00 
      431 xdffout_6.xi42.xi9.             nmos_b             1.00 
      432 xdffout_6.xi42.xp1.             pmos_b             1.00 
      433 xdffout_6.xi42.xi10.            pmos_b             1.00 
      434 xdffout_6.xi43.xn1.             nmos_b             1.00 
      435 xdffout_6.xi43.xi9.             nmos_b             1.00 
      436 xdffout_6.xi43.xp1.             pmos_b             1.00 
      437 xdffout_6.xi43.xi10.            pmos_b             1.00 
      438 xdffout_6.xi31.xn1.             nmos_b             1.00 
      439 xdffout_6.xi31.xi9.             nmos_b             1.00 
      440 xdffout_6.xi31.xp1.             pmos_b             1.00 
      441 xdffout_6.xi31.xi10.            pmos_b             1.00 
      442 xdffout_6.xi37.xn1.             nmos_b             1.00 
      443 xdffout_6.xi37.xi9.             nmos_b             1.00 
      444 xdffout_6.xi37.xp1.             pmos_b             1.00 
      445 xdffout_6.xi37.xi10.            pmos_b             1.00 
      446 xdffout_5.xi1.xp1.              pmos_b             1.00 
      447 xdffout_5.xi1.xn1.              nmos_b             1.00 
      448 xdffout_5.xi42.xn1.             nmos_b             1.00 
      449 xdffout_5.xi42.xi9.             nmos_b             1.00 
      450 xdffout_5.xi42.xp1.             pmos_b             1.00 
      451 xdffout_5.xi42.xi10.            pmos_b             1.00 
      452 xdffout_5.xi43.xn1.             nmos_b             1.00 
      453 xdffout_5.xi43.xi9.             nmos_b             1.00 
      454 xdffout_5.xi43.xp1.             pmos_b             1.00 
      455 xdffout_5.xi43.xi10.            pmos_b             1.00 
      456 xdffout_5.xi31.xn1.             nmos_b             1.00 
      457 xdffout_5.xi31.xi9.             nmos_b             1.00 
      458 xdffout_5.xi31.xp1.             pmos_b             1.00 
      459 xdffout_5.xi31.xi10.            pmos_b             1.00 
      460 xdffout_5.xi37.xn1.             nmos_b             1.00 
      461 xdffout_5.xi37.xi9.             nmos_b             1.00 
      462 xdffout_5.xi37.xp1.             pmos_b             1.00 
      463 xdffout_5.xi37.xi10.            pmos_b             1.00 
      464 xdffout_4.xi1.xp1.              pmos_b             1.00 
      465 xdffout_4.xi1.xn1.              nmos_b             1.00 
      466 xdffout_4.xi42.xn1.             nmos_b             1.00 
      467 xdffout_4.xi42.xi9.             nmos_b             1.00 
      468 xdffout_4.xi42.xp1.             pmos_b             1.00 
      469 xdffout_4.xi42.xi10.            pmos_b             1.00 
      470 xdffout_4.xi43.xn1.             nmos_b             1.00 
      471 xdffout_4.xi43.xi9.             nmos_b             1.00 
      472 xdffout_4.xi43.xp1.             pmos_b             1.00 
      473 xdffout_4.xi43.xi10.            pmos_b             1.00 
      474 xdffout_4.xi31.xn1.             nmos_b             1.00 
      475 xdffout_4.xi31.xi9.             nmos_b             1.00 
      476 xdffout_4.xi31.xp1.             pmos_b             1.00 
      477 xdffout_4.xi31.xi10.            pmos_b             1.00 
      478 xdffout_4.xi37.xn1.             nmos_b             1.00 
      479 xdffout_4.xi37.xi9.             nmos_b             1.00 
      480 xdffout_4.xi37.xp1.             pmos_b             1.00 
      481 xdffout_4.xi37.xi10.            pmos_b             1.00 
      482 xdffout_3.xi1.xp1.              pmos_b             1.00 
      483 xdffout_3.xi1.xn1.              nmos_b             1.00 
      484 xdffout_3.xi42.xn1.             nmos_b             1.00 
      485 xdffout_3.xi42.xi9.             nmos_b             1.00 
      486 xdffout_3.xi42.xp1.             pmos_b             1.00 
      487 xdffout_3.xi42.xi10.            pmos_b             1.00 
      488 xdffout_3.xi43.xn1.             nmos_b             1.00 
      489 xdffout_3.xi43.xi9.             nmos_b             1.00 
      490 xdffout_3.xi43.xp1.             pmos_b             1.00 
      491 xdffout_3.xi43.xi10.            pmos_b             1.00 
      492 xdffout_3.xi31.xn1.             nmos_b             1.00 
      493 xdffout_3.xi31.xi9.             nmos_b             1.00 
      494 xdffout_3.xi31.xp1.             pmos_b             1.00 
      495 xdffout_3.xi31.xi10.            pmos_b             1.00 
      496 xdffout_3.xi37.xn1.             nmos_b             1.00 
      497 xdffout_3.xi37.xi9.             nmos_b             1.00 
      498 xdffout_3.xi37.xp1.             pmos_b             1.00 
      499 xdffout_3.xi37.xi10.            pmos_b             1.00 
      500 xdffout_2.xi1.xp1.              pmos_b             1.00 
      501 xdffout_2.xi1.xn1.              nmos_b             1.00 
      502 xdffout_2.xi42.xn1.             nmos_b             1.00 
      503 xdffout_2.xi42.xi9.             nmos_b             1.00 
      504 xdffout_2.xi42.xp1.             pmos_b             1.00 
      505 xdffout_2.xi42.xi10.            pmos_b             1.00 
      506 xdffout_2.xi43.xn1.             nmos_b             1.00 
      507 xdffout_2.xi43.xi9.             nmos_b             1.00 
      508 xdffout_2.xi43.xp1.             pmos_b             1.00 
      509 xdffout_2.xi43.xi10.            pmos_b             1.00 
      510 xdffout_2.xi31.xn1.             nmos_b             1.00 
      511 xdffout_2.xi31.xi9.             nmos_b             1.00 
      512 xdffout_2.xi31.xp1.             pmos_b             1.00 
      513 xdffout_2.xi31.xi10.            pmos_b             1.00 
      514 xdffout_2.xi37.xn1.             nmos_b             1.00 
      515 xdffout_2.xi37.xi9.             nmos_b             1.00 
      516 xdffout_2.xi37.xp1.             pmos_b             1.00 
      517 xdffout_2.xi37.xi10.            pmos_b             1.00 
      518 xdffout_1.xi1.xp1.              pmos_b             1.00 
      519 xdffout_1.xi1.xn1.              nmos_b             1.00 
      520 xdffout_1.xi42.xn1.             nmos_b             1.00 
      521 xdffout_1.xi42.xi9.             nmos_b             1.00 
      522 xdffout_1.xi42.xp1.             pmos_b             1.00 
      523 xdffout_1.xi42.xi10.            pmos_b             1.00 
      524 xdffout_1.xi43.xn1.             nmos_b             1.00 
      525 xdffout_1.xi43.xi9.             nmos_b             1.00 
      526 xdffout_1.xi43.xp1.             pmos_b             1.00 
      527 xdffout_1.xi43.xi10.            pmos_b             1.00 
      528 xdffout_1.xi31.xn1.             nmos_b             1.00 
      529 xdffout_1.xi31.xi9.             nmos_b             1.00 
      530 xdffout_1.xi31.xp1.             pmos_b             1.00 
      531 xdffout_1.xi31.xi10.            pmos_b             1.00 
      532 xdffout_1.xi37.xn1.             nmos_b             1.00 
      533 xdffout_1.xi37.xi9.             nmos_b             1.00 
      534 xdffout_1.xi37.xp1.             pmos_b             1.00 
      535 xdffout_1.xi37.xi10.            pmos_b             1.00 
      536 xdffout_0.xi1.xp1.              pmos_b             1.00 
      537 xdffout_0.xi1.xn1.              nmos_b             1.00 
      538 xdffout_0.xi42.xn1.             nmos_b             1.00 
      539 xdffout_0.xi42.xi9.             nmos_b             1.00 
      540 xdffout_0.xi42.xp1.             pmos_b             1.00 
      541 xdffout_0.xi42.xi10.            pmos_b             1.00 
      542 xdffout_0.xi43.xn1.             nmos_b             1.00 
      543 xdffout_0.xi43.xi9.             nmos_b             1.00 
      544 xdffout_0.xi43.xp1.             pmos_b             1.00 
      545 xdffout_0.xi43.xi10.            pmos_b             1.00 
      546 xdffout_0.xi31.xn1.             nmos_b             1.00 
      547 xdffout_0.xi31.xi9.             nmos_b             1.00 
      548 xdffout_0.xi31.xp1.             pmos_b             1.00 
      549 xdffout_0.xi31.xi10.            pmos_b             1.00 
      550 xdffout_0.xi37.xn1.             nmos_b             1.00 
      551 xdffout_0.xi37.xi9.             nmos_b             1.00 
      552 xdffout_0.xi37.xp1.             pmos_b             1.00 
      553 xdffout_0.xi37.xi10.            pmos_b             1.00 
      554 xcmplatch.xi2.xp1.              pmos_b             1.00 
      555 xcmplatch.xi2.xn1.              nmos_b             1.00 
      556 xcmplatch.xi1.xp1.              pmos_b             1.00 
      557 xcmplatch.xi1.xn1.              nmos_b             1.00 
      558 xi24.xsa_dac.xswdac_0.xi7.      inv_bhv            1.00 
      559 xi24.xsa_dac.xswdac_0.xi3.      inv_bhv            1.00 
      560 xi24.xsa_dac.xswdac_0.xi20.     inv_bhv            1.00 
      561 xi24.xsa_dac.xswdac_0.xi1.      inv_bhv            1.00 
      562 xi24.xsa_dac.xswdac_0.xi2.      nand2_bhv          1.00 
      563 xi24.xsa_dac.xswdac_0.xi19.     nand2_bhv          1.00 
      564 xi24.xsa_dac.xswdac_0.xswp.     tgb                1.00 
      565 xi24.xsa_dac.xswdac_0.xswn.     tgb                1.00 
      566 xi24.xsa_dac.xswdac_0.xswin.    tgb                1.00 
      567 xi24.xsa_dac.xswdac_1.xi7.      inv_bhv            1.00 
      568 xi24.xsa_dac.xswdac_1.xi3.      inv_bhv            1.00 
      569 xi24.xsa_dac.xswdac_1.xi20.     inv_bhv            1.00 
      570 xi24.xsa_dac.xswdac_1.xi1.      inv_bhv            1.00 
      571 xi24.xsa_dac.xswdac_1.xi2.      nand2_bhv          1.00 
      572 xi24.xsa_dac.xswdac_1.xi19.     nand2_bhv          1.00 
      573 xi24.xsa_dac.xswdac_1.xswp.     tgb                1.00 
      574 xi24.xsa_dac.xswdac_1.xswn.     tgb                1.00 
      575 xi24.xsa_dac.xswdac_1.xswin.    tgb                1.00 
      576 xi24.xsa_dac.xswdac_2.xi7.      inv_bhv            1.00 
      577 xi24.xsa_dac.xswdac_2.xi3.      inv_bhv            1.00 
      578 xi24.xsa_dac.xswdac_2.xi20.     inv_bhv            1.00 
      579 xi24.xsa_dac.xswdac_2.xi1.      inv_bhv            1.00 
      580 xi24.xsa_dac.xswdac_2.xi2.      nand2_bhv          1.00 
      581 xi24.xsa_dac.xswdac_2.xi19.     nand2_bhv          1.00 
      582 xi24.xsa_dac.xswdac_2.xswp.     tgb                1.00 
      583 xi24.xsa_dac.xswdac_2.xswn.     tgb                1.00 
      584 xi24.xsa_dac.xswdac_2.xswin.    tgb                1.00 
      585 xi24.xsa_dac.xswdac_3.xi7.      inv_bhv            1.00 
      586 xi24.xsa_dac.xswdac_3.xi3.      inv_bhv            1.00 
      587 xi24.xsa_dac.xswdac_3.xi20.     inv_bhv            1.00 
      588 xi24.xsa_dac.xswdac_3.xi1.      inv_bhv            1.00 
      589 xi24.xsa_dac.xswdac_3.xi2.      nand2_bhv          1.00 
      590 xi24.xsa_dac.xswdac_3.xi19.     nand2_bhv          1.00 
      591 xi24.xsa_dac.xswdac_3.xswp.     tgb                1.00 
      592 xi24.xsa_dac.xswdac_3.xswn.     tgb                1.00 
      593 xi24.xsa_dac.xswdac_3.xswin.    tgb                1.00 
      594 xi24.xsa_dac.xswdac_4.xi7.      inv_bhv            1.00 
      595 xi24.xsa_dac.xswdac_4.xi3.      inv_bhv            1.00 
      596 xi24.xsa_dac.xswdac_4.xi20.     inv_bhv            1.00 
      597 xi24.xsa_dac.xswdac_4.xi1.      inv_bhv            1.00 
      598 xi24.xsa_dac.xswdac_4.xi2.      nand2_bhv          1.00 
      599 xi24.xsa_dac.xswdac_4.xi19.     nand2_bhv          1.00 
      600 xi24.xsa_dac.xswdac_4.xswp.     tgb                1.00 
      601 xi24.xsa_dac.xswdac_4.xswn.     tgb                1.00 
      602 xi24.xsa_dac.xswdac_4.xswin.    tgb                1.00 
      603 xi24.xsa_dac.xswdac_5.xi7.      inv_bhv            1.00 
      604 xi24.xsa_dac.xswdac_5.xi3.      inv_bhv            1.00 
      605 xi24.xsa_dac.xswdac_5.xi20.     inv_bhv            1.00 
      606 xi24.xsa_dac.xswdac_5.xi1.      inv_bhv            1.00 
      607 xi24.xsa_dac.xswdac_5.xi2.      nand2_bhv          1.00 
      608 xi24.xsa_dac.xswdac_5.xi19.     nand2_bhv          1.00 
      609 xi24.xsa_dac.xswdac_5.xswp.     tgb                1.00 
      610 xi24.xsa_dac.xswdac_5.xswn.     tgb                1.00 
      611 xi24.xsa_dac.xswdac_5.xswin.    tgb                1.00 
      612 xi24.xsa_dac.xswdac_6.xi7.      inv_bhv            1.00 
      613 xi24.xsa_dac.xswdac_6.xi3.      inv_bhv            1.00 
      614 xi24.xsa_dac.xswdac_6.xi20.     inv_bhv            1.00 
      615 xi24.xsa_dac.xswdac_6.xi1.      inv_bhv            1.00 
      616 xi24.xsa_dac.xswdac_6.xi2.      nand2_bhv          1.00 
      617 xi24.xsa_dac.xswdac_6.xi19.     nand2_bhv          1.00 
      618 xi24.xsa_dac.xswdac_6.xswp.     tgb                1.00 
      619 xi24.xsa_dac.xswdac_6.xswn.     tgb                1.00 
      620 xi24.xsa_dac.xswdac_6.xswin.    tgb                1.00 
      621 xi24.xsa_dac.xswdac_7.xi7.      inv_bhv            1.00 
      622 xi24.xsa_dac.xswdac_7.xi3.      inv_bhv            1.00 
      623 xi24.xsa_dac.xswdac_7.xi20.     inv_bhv            1.00 
      624 xi24.xsa_dac.xswdac_7.xi1.      inv_bhv            1.00 
      625 xi24.xsa_dac.xswdac_7.xi2.      nand2_bhv          1.00 
      626 xi24.xsa_dac.xswdac_7.xi19.     nand2_bhv          1.00 
      627 xi24.xsa_dac.xswdac_7.xswp.     tgb                1.00 
      628 xi24.xsa_dac.xswdac_7.xswn.     tgb                1.00 
      629 xi24.xsa_dac.xswdac_7.xswin.    tgb                1.00 
      630 xi24.xsa_dac.xswdac_8.xi7.      inv_bhv            1.00 
      631 xi24.xsa_dac.xswdac_8.xi3.      inv_bhv            1.00 
      632 xi24.xsa_dac.xswdac_8.xi20.     inv_bhv            1.00 
      633 xi24.xsa_dac.xswdac_8.xi1.      inv_bhv            1.00 
      634 xi24.xsa_dac.xswdac_8.xi2.      nand2_bhv          1.00 
      635 xi24.xsa_dac.xswdac_8.xi19.     nand2_bhv          1.00 
      636 xi24.xsa_dac.xswdac_8.xswp.     tgb                1.00 
      637 xi24.xsa_dac.xswdac_8.xswn.     tgb                1.00 
      638 xi24.xsa_dac.xswdac_8.xswin.    tgb                1.00 
      639 xi24.xsa_dac.xswdac_9.xi7.      inv_bhv            1.00 
      640 xi24.xsa_dac.xswdac_9.xi3.      inv_bhv            1.00 
      641 xi24.xsa_dac.xswdac_9.xi20.     inv_bhv            1.00 
      642 xi24.xsa_dac.xswdac_9.xi1.      inv_bhv            1.00 
      643 xi24.xsa_dac.xswdac_9.xi2.      nand2_bhv          1.00 
      644 xi24.xsa_dac.xswdac_9.xi19.     nand2_bhv          1.00 
      645 xi24.xsa_dac.xswdac_9.xswp.     tgb                1.00 
      646 xi24.xsa_dac.xswdac_9.xswn.     tgb                1.00 
      647 xi24.xsa_dac.xswdac_9.xswin.    tgb                1.00 
      648 xi24.xsa_dac.xi1.xp1.           pmos_b             1.00 
      649 xi24.xsa_dac.xi1.xn1.           nmos_b             1.00 
      650 xi23.xsa_dac.xswdac_0.xi7.      inv_bhv            1.00 
      651 xi23.xsa_dac.xswdac_0.xi3.      inv_bhv            1.00 
      652 xi23.xsa_dac.xswdac_0.xi20.     inv_bhv            1.00 
      653 xi23.xsa_dac.xswdac_0.xi1.      inv_bhv            1.00 
      654 xi23.xsa_dac.xswdac_0.xi2.      nand2_bhv          1.00 
      655 xi23.xsa_dac.xswdac_0.xi19.     nand2_bhv          1.00 
      656 xi23.xsa_dac.xswdac_0.xswp.     tgb                1.00 
      657 xi23.xsa_dac.xswdac_0.xswn.     tgb                1.00 
      658 xi23.xsa_dac.xswdac_0.xswin.    tgb                1.00 
      659 xi23.xsa_dac.xswdac_1.xi7.      inv_bhv            1.00 
      660 xi23.xsa_dac.xswdac_1.xi3.      inv_bhv            1.00 
      661 xi23.xsa_dac.xswdac_1.xi20.     inv_bhv            1.00 
      662 xi23.xsa_dac.xswdac_1.xi1.      inv_bhv            1.00 
      663 xi23.xsa_dac.xswdac_1.xi2.      nand2_bhv          1.00 
      664 xi23.xsa_dac.xswdac_1.xi19.     nand2_bhv          1.00 
      665 xi23.xsa_dac.xswdac_1.xswp.     tgb                1.00 
      666 xi23.xsa_dac.xswdac_1.xswn.     tgb                1.00 
      667 xi23.xsa_dac.xswdac_1.xswin.    tgb                1.00 
      668 xi23.xsa_dac.xswdac_2.xi7.      inv_bhv            1.00 
      669 xi23.xsa_dac.xswdac_2.xi3.      inv_bhv            1.00 
      670 xi23.xsa_dac.xswdac_2.xi20.     inv_bhv            1.00 
      671 xi23.xsa_dac.xswdac_2.xi1.      inv_bhv            1.00 
      672 xi23.xsa_dac.xswdac_2.xi2.      nand2_bhv          1.00 
      673 xi23.xsa_dac.xswdac_2.xi19.     nand2_bhv          1.00 
      674 xi23.xsa_dac.xswdac_2.xswp.     tgb                1.00 
      675 xi23.xsa_dac.xswdac_2.xswn.     tgb                1.00 
      676 xi23.xsa_dac.xswdac_2.xswin.    tgb                1.00 
      677 xi23.xsa_dac.xswdac_3.xi7.      inv_bhv            1.00 
      678 xi23.xsa_dac.xswdac_3.xi3.      inv_bhv            1.00 
      679 xi23.xsa_dac.xswdac_3.xi20.     inv_bhv            1.00 
      680 xi23.xsa_dac.xswdac_3.xi1.      inv_bhv            1.00 
      681 xi23.xsa_dac.xswdac_3.xi2.      nand2_bhv          1.00 
      682 xi23.xsa_dac.xswdac_3.xi19.     nand2_bhv          1.00 
      683 xi23.xsa_dac.xswdac_3.xswp.     tgb                1.00 
      684 xi23.xsa_dac.xswdac_3.xswn.     tgb                1.00 
      685 xi23.xsa_dac.xswdac_3.xswin.    tgb                1.00 
      686 xi23.xsa_dac.xswdac_4.xi7.      inv_bhv            1.00 
      687 xi23.xsa_dac.xswdac_4.xi3.      inv_bhv            1.00 
      688 xi23.xsa_dac.xswdac_4.xi20.     inv_bhv            1.00 
      689 xi23.xsa_dac.xswdac_4.xi1.      inv_bhv            1.00 
      690 xi23.xsa_dac.xswdac_4.xi2.      nand2_bhv          1.00 
      691 xi23.xsa_dac.xswdac_4.xi19.     nand2_bhv          1.00 
      692 xi23.xsa_dac.xswdac_4.xswp.     tgb                1.00 
      693 xi23.xsa_dac.xswdac_4.xswn.     tgb                1.00 
      694 xi23.xsa_dac.xswdac_4.xswin.    tgb                1.00 
      695 xi23.xsa_dac.xswdac_5.xi7.      inv_bhv            1.00 
      696 xi23.xsa_dac.xswdac_5.xi3.      inv_bhv            1.00 
      697 xi23.xsa_dac.xswdac_5.xi20.     inv_bhv            1.00 
      698 xi23.xsa_dac.xswdac_5.xi1.      inv_bhv            1.00 
      699 xi23.xsa_dac.xswdac_5.xi2.      nand2_bhv          1.00 
      700 xi23.xsa_dac.xswdac_5.xi19.     nand2_bhv          1.00 
      701 xi23.xsa_dac.xswdac_5.xswp.     tgb                1.00 
      702 xi23.xsa_dac.xswdac_5.xswn.     tgb                1.00 
      703 xi23.xsa_dac.xswdac_5.xswin.    tgb                1.00 
      704 xi23.xsa_dac.xswdac_6.xi7.      inv_bhv            1.00 
      705 xi23.xsa_dac.xswdac_6.xi3.      inv_bhv            1.00 
      706 xi23.xsa_dac.xswdac_6.xi20.     inv_bhv            1.00 
      707 xi23.xsa_dac.xswdac_6.xi1.      inv_bhv            1.00 
      708 xi23.xsa_dac.xswdac_6.xi2.      nand2_bhv          1.00 
      709 xi23.xsa_dac.xswdac_6.xi19.     nand2_bhv          1.00 
      710 xi23.xsa_dac.xswdac_6.xswp.     tgb                1.00 
      711 xi23.xsa_dac.xswdac_6.xswn.     tgb                1.00 
      712 xi23.xsa_dac.xswdac_6.xswin.    tgb                1.00 
      713 xi23.xsa_dac.xswdac_7.xi7.      inv_bhv            1.00 
      714 xi23.xsa_dac.xswdac_7.xi3.      inv_bhv            1.00 
      715 xi23.xsa_dac.xswdac_7.xi20.     inv_bhv            1.00 
      716 xi23.xsa_dac.xswdac_7.xi1.      inv_bhv            1.00 
      717 xi23.xsa_dac.xswdac_7.xi2.      nand2_bhv          1.00 
      718 xi23.xsa_dac.xswdac_7.xi19.     nand2_bhv          1.00 
      719 xi23.xsa_dac.xswdac_7.xswp.     tgb                1.00 
      720 xi23.xsa_dac.xswdac_7.xswn.     tgb                1.00 
      721 xi23.xsa_dac.xswdac_7.xswin.    tgb                1.00 
      722 xi23.xsa_dac.xswdac_8.xi7.      inv_bhv            1.00 
      723 xi23.xsa_dac.xswdac_8.xi3.      inv_bhv            1.00 
      724 xi23.xsa_dac.xswdac_8.xi20.     inv_bhv            1.00 
      725 xi23.xsa_dac.xswdac_8.xi1.      inv_bhv            1.00 
      726 xi23.xsa_dac.xswdac_8.xi2.      nand2_bhv          1.00 
      727 xi23.xsa_dac.xswdac_8.xi19.     nand2_bhv          1.00 
      728 xi23.xsa_dac.xswdac_8.xswp.     tgb                1.00 
      729 xi23.xsa_dac.xswdac_8.xswn.     tgb                1.00 
      730 xi23.xsa_dac.xswdac_8.xswin.    tgb                1.00 
      731 xi23.xsa_dac.xswdac_9.xi7.      inv_bhv            1.00 
      732 xi23.xsa_dac.xswdac_9.xi3.      inv_bhv            1.00 
      733 xi23.xsa_dac.xswdac_9.xi20.     inv_bhv            1.00 
      734 xi23.xsa_dac.xswdac_9.xi1.      inv_bhv            1.00 
      735 xi23.xsa_dac.xswdac_9.xi2.      nand2_bhv          1.00 
      736 xi23.xsa_dac.xswdac_9.xi19.     nand2_bhv          1.00 
      737 xi23.xsa_dac.xswdac_9.xswp.     tgb                1.00 
      738 xi23.xsa_dac.xswdac_9.xswn.     tgb                1.00 
      739 xi23.xsa_dac.xswdac_9.xswin.    tgb                1.00 
      740 xi23.xsa_dac.xi1.xp1.           pmos_b             1.00 
      741 xi23.xsa_dac.xi1.xn1.           nmos_b             1.00 
      742 xsa_logic.xdata9.xi1.xp1.       pmos_b             1.00 
      743 xsa_logic.xdata9.xi1.xn1.       nmos_b             1.00 
      744 xsa_logic.xdata9.xi42.xn1.      nmos_b             1.00 
      745 xsa_logic.xdata9.xi42.xi9.      nmos_b             1.00 
      746 xsa_logic.xdata9.xi42.xp1.      pmos_b             1.00 
      747 xsa_logic.xdata9.xi42.xi10.     pmos_b             1.00 
      748 xsa_logic.xdata9.xi43.xn1.      nmos_b             1.00 
      749 xsa_logic.xdata9.xi43.xi9.      nmos_b             1.00 
      750 xsa_logic.xdata9.xi43.xp1.      pmos_b             1.00 
      751 xsa_logic.xdata9.xi43.xi10.     pmos_b             1.00 
      752 xsa_logic.xdata9.xi31.xn1.      nmos_b             1.00 
      753 xsa_logic.xdata9.xi31.xi9.      nmos_b             1.00 
      754 xsa_logic.xdata9.xi31.xp1.      pmos_b             1.00 
      755 xsa_logic.xdata9.xi31.xi10.     pmos_b             1.00 
      756 xsa_logic.xdata9.xi37.xn1.      nmos_b             1.00 
      757 xsa_logic.xdata9.xi37.xi9.      nmos_b             1.00 
      758 xsa_logic.xdata9.xi37.xp1.      pmos_b             1.00 
      759 xsa_logic.xdata9.xi37.xi10.     pmos_b             1.00 
      760 xsa_logic.xdata8.xi1.xp1.       pmos_b             1.00 
      761 xsa_logic.xdata8.xi1.xn1.       nmos_b             1.00 
      762 xsa_logic.xdata8.xi42.xn1.      nmos_b             1.00 
      763 xsa_logic.xdata8.xi42.xi9.      nmos_b             1.00 
      764 xsa_logic.xdata8.xi42.xp1.      pmos_b             1.00 
      765 xsa_logic.xdata8.xi42.xi10.     pmos_b             1.00 
      766 xsa_logic.xdata8.xi43.xn1.      nmos_b             1.00 
      767 xsa_logic.xdata8.xi43.xi9.      nmos_b             1.00 
      768 xsa_logic.xdata8.xi43.xp1.      pmos_b             1.00 
      769 xsa_logic.xdata8.xi43.xi10.     pmos_b             1.00 
      770 xsa_logic.xdata8.xi31.xn1.      nmos_b             1.00 
      771 xsa_logic.xdata8.xi31.xi9.      nmos_b             1.00 
      772 xsa_logic.xdata8.xi31.xp1.      pmos_b             1.00 
      773 xsa_logic.xdata8.xi31.xi10.     pmos_b             1.00 
      774 xsa_logic.xdata8.xi37.xn1.      nmos_b             1.00 
      775 xsa_logic.xdata8.xi37.xi9.      nmos_b             1.00 
      776 xsa_logic.xdata8.xi37.xp1.      pmos_b             1.00 
      777 xsa_logic.xdata8.xi37.xi10.     pmos_b             1.00 
      778 xsa_logic.xrsh8.xi1.xp1.        pmos_b             1.00 
      779 xsa_logic.xrsh8.xi1.xn1.        nmos_b             1.00 
      780 xsa_logic.xrsh8.xi42.xn1.       nmos_b             1.00 
      781 xsa_logic.xrsh8.xi42.xi9.       nmos_b             1.00 
      782 xsa_logic.xrsh8.xi42.xp1.       pmos_b             1.00 
      783 xsa_logic.xrsh8.xi42.xi10.      pmos_b             1.00 
      784 xsa_logic.xrsh8.xi43.xn1.       nmos_b             1.00 
      785 xsa_logic.xrsh8.xi43.xi9.       nmos_b             1.00 
      786 xsa_logic.xrsh8.xi43.xp1.       pmos_b             1.00 
      787 xsa_logic.xrsh8.xi43.xi10.      pmos_b             1.00 
      788 xsa_logic.xrsh8.xi31.xn1.       nmos_b             1.00 
      789 xsa_logic.xrsh8.xi31.xi9.       nmos_b             1.00 
      790 xsa_logic.xrsh8.xi31.xp1.       pmos_b             1.00 
      791 xsa_logic.xrsh8.xi31.xi10.      pmos_b             1.00 
      792 xsa_logic.xrsh8.xi37.xn1.       nmos_b             1.00 
      793 xsa_logic.xrsh8.xi37.xi9.       nmos_b             1.00 
      794 xsa_logic.xrsh8.xi37.xp1.       pmos_b             1.00 
      795 xsa_logic.xrsh8.xi37.xi10.      pmos_b             1.00 
      796 xsa_logic.xrsh9.xi1.xp1.        pmos_b             1.00 
      797 xsa_logic.xrsh9.xi1.xn1.        nmos_b             1.00 
      798 xsa_logic.xrsh9.xi42.xn1.       nmos_b             1.00 
      799 xsa_logic.xrsh9.xi42.xi9.       nmos_b             1.00 
      800 xsa_logic.xrsh9.xi42.xp1.       pmos_b             1.00 
      801 xsa_logic.xrsh9.xi42.xi10.      pmos_b             1.00 
      802 xsa_logic.xrsh9.xi43.xn1.       nmos_b             1.00 
      803 xsa_logic.xrsh9.xi43.xi9.       nmos_b             1.00 
      804 xsa_logic.xrsh9.xi43.xp1.       pmos_b             1.00 
      805 xsa_logic.xrsh9.xi43.xi10.      pmos_b             1.00 
      806 xsa_logic.xrsh9.xi31.xn1.       nmos_b             1.00 
      807 xsa_logic.xrsh9.xi31.xi9.       nmos_b             1.00 
      808 xsa_logic.xrsh9.xi31.xp1.       pmos_b             1.00 
      809 xsa_logic.xrsh9.xi31.xi10.      pmos_b             1.00 
      810 xsa_logic.xrsh9.xi37.xn1.       nmos_b             1.00 
      811 xsa_logic.xrsh9.xi37.xi9.       nmos_b             1.00 
      812 xsa_logic.xrsh9.xi37.xp1.       pmos_b             1.00 
      813 xsa_logic.xrsh9.xi37.xi10.      pmos_b             1.00 
      814 xsa_logic.xrsh00.xi1.xp1.       pmos_b             1.00 
      815 xsa_logic.xrsh00.xi1.xn1.       nmos_b             1.00 
      816 xsa_logic.xrsh00.xi42.xn1.      nmos_b             1.00 
      817 xsa_logic.xrsh00.xi42.xi9.      nmos_b             1.00 
      818 xsa_logic.xrsh00.xi42.xp1.      pmos_b             1.00 
      819 xsa_logic.xrsh00.xi42.xi10.     pmos_b             1.00 
      820 xsa_logic.xrsh00.xi43.xn1.      nmos_b             1.00 
      821 xsa_logic.xrsh00.xi43.xi9.      nmos_b             1.00 
      822 xsa_logic.xrsh00.xi43.xp1.      pmos_b             1.00 
      823 xsa_logic.xrsh00.xi43.xi10.     pmos_b             1.00 
      824 xsa_logic.xrsh00.xi31.xn1.      nmos_b             1.00 
      825 xsa_logic.xrsh00.xi31.xi9.      nmos_b             1.00 
      826 xsa_logic.xrsh00.xi31.xp1.      pmos_b             1.00 
      827 xsa_logic.xrsh00.xi31.xi10.     pmos_b             1.00 
      828 xsa_logic.xrsh00.xi37.xn1.      nmos_b             1.00 
      829 xsa_logic.xrsh00.xi37.xi9.      nmos_b             1.00 
      830 xsa_logic.xrsh00.xi37.xp1.      pmos_b             1.00 
      831 xsa_logic.xrsh00.xi37.xi10.     pmos_b             1.00 
      832 xsa_logic.xdata3.xi1.xp1.       pmos_b             1.00 
      833 xsa_logic.xdata3.xi1.xn1.       nmos_b             1.00 
      834 xsa_logic.xdata3.xi42.xn1.      nmos_b             1.00 
      835 xsa_logic.xdata3.xi42.xi9.      nmos_b             1.00 
      836 xsa_logic.xdata3.xi42.xp1.      pmos_b             1.00 
      837 xsa_logic.xdata3.xi42.xi10.     pmos_b             1.00 
      838 xsa_logic.xdata3.xi43.xn1.      nmos_b             1.00 
      839 xsa_logic.xdata3.xi43.xi9.      nmos_b             1.00 
      840 xsa_logic.xdata3.xi43.xp1.      pmos_b             1.00 
      841 xsa_logic.xdata3.xi43.xi10.     pmos_b             1.00 
      842 xsa_logic.xdata3.xi31.xn1.      nmos_b             1.00 
      843 xsa_logic.xdata3.xi31.xi9.      nmos_b             1.00 
      844 xsa_logic.xdata3.xi31.xp1.      pmos_b             1.00 
      845 xsa_logic.xdata3.xi31.xi10.     pmos_b             1.00 
      846 xsa_logic.xdata3.xi37.xn1.      nmos_b             1.00 
      847 xsa_logic.xdata3.xi37.xi9.      nmos_b             1.00 
      848 xsa_logic.xdata3.xi37.xp1.      pmos_b             1.00 
      849 xsa_logic.xdata3.xi37.xi10.     pmos_b             1.00 
      850 xsa_logic.xdata2.xi1.xp1.       pmos_b             1.00 
      851 xsa_logic.xdata2.xi1.xn1.       nmos_b             1.00 
      852 xsa_logic.xdata2.xi42.xn1.      nmos_b             1.00 
      853 xsa_logic.xdata2.xi42.xi9.      nmos_b             1.00 
      854 xsa_logic.xdata2.xi42.xp1.      pmos_b             1.00 
      855 xsa_logic.xdata2.xi42.xi10.     pmos_b             1.00 
      856 xsa_logic.xdata2.xi43.xn1.      nmos_b             1.00 
      857 xsa_logic.xdata2.xi43.xi9.      nmos_b             1.00 
      858 xsa_logic.xdata2.xi43.xp1.      pmos_b             1.00 
      859 xsa_logic.xdata2.xi43.xi10.     pmos_b             1.00 
      860 xsa_logic.xdata2.xi31.xn1.      nmos_b             1.00 
      861 xsa_logic.xdata2.xi31.xi9.      nmos_b             1.00 
      862 xsa_logic.xdata2.xi31.xp1.      pmos_b             1.00 
      863 xsa_logic.xdata2.xi31.xi10.     pmos_b             1.00 
      864 xsa_logic.xdata2.xi37.xn1.      nmos_b             1.00 
      865 xsa_logic.xdata2.xi37.xi9.      nmos_b             1.00 
      866 xsa_logic.xdata2.xi37.xp1.      pmos_b             1.00 
      867 xsa_logic.xdata2.xi37.xi10.     pmos_b             1.00 
      868 xsa_logic.xdata1.xi1.xp1.       pmos_b             1.00 
      869 xsa_logic.xdata1.xi1.xn1.       nmos_b             1.00 
      870 xsa_logic.xdata1.xi42.xn1.      nmos_b             1.00 
      871 xsa_logic.xdata1.xi42.xi9.      nmos_b             1.00 
      872 xsa_logic.xdata1.xi42.xp1.      pmos_b             1.00 
      873 xsa_logic.xdata1.xi42.xi10.     pmos_b             1.00 
      874 xsa_logic.xdata1.xi43.xn1.      nmos_b             1.00 
      875 xsa_logic.xdata1.xi43.xi9.      nmos_b             1.00 
      876 xsa_logic.xdata1.xi43.xp1.      pmos_b             1.00 
      877 xsa_logic.xdata1.xi43.xi10.     pmos_b             1.00 
      878 xsa_logic.xdata1.xi31.xn1.      nmos_b             1.00 
      879 xsa_logic.xdata1.xi31.xi9.      nmos_b             1.00 
      880 xsa_logic.xdata1.xi31.xp1.      pmos_b             1.00 
      881 xsa_logic.xdata1.xi31.xi10.     pmos_b             1.00 
      882 xsa_logic.xdata1.xi37.xn1.      nmos_b             1.00 
      883 xsa_logic.xdata1.xi37.xi9.      nmos_b             1.00 
      884 xsa_logic.xdata1.xi37.xp1.      pmos_b             1.00 
      885 xsa_logic.xdata1.xi37.xi10.     pmos_b             1.00 
      886 xsa_logic.xdata00.xi1.xp1.      pmos_b             1.00 
      887 xsa_logic.xdata00.xi1.xn1.      nmos_b             1.00 
      888 xsa_logic.xdata00.xi42.xn1.     nmos_b             1.00 
      889 xsa_logic.xdata00.xi42.xi9.     nmos_b             1.00 
      890 xsa_logic.xdata00.xi42.xp1.     pmos_b             1.00 
      891 xsa_logic.xdata00.xi42.xi10.    pmos_b             1.00 
      892 xsa_logic.xdata00.xi43.xn1.     nmos_b             1.00 
      893 xsa_logic.xdata00.xi43.xi9.     nmos_b             1.00 
      894 xsa_logic.xdata00.xi43.xp1.     pmos_b             1.00 
      895 xsa_logic.xdata00.xi43.xi10.    pmos_b             1.00 
      896 xsa_logic.xdata00.xi31.xn1.     nmos_b             1.00 
      897 xsa_logic.xdata00.xi31.xi9.     nmos_b             1.00 
      898 xsa_logic.xdata00.xi31.xp1.     pmos_b             1.00 
      899 xsa_logic.xdata00.xi31.xi10.    pmos_b             1.00 
      900 xsa_logic.xdata00.xi37.xn1.     nmos_b             1.00 
      901 xsa_logic.xdata00.xi37.xi9.     nmos_b             1.00 
      902 xsa_logic.xdata00.xi37.xp1.     pmos_b             1.00 
      903 xsa_logic.xdata00.xi37.xi10.    pmos_b             1.00 
      904 xsa_logic.xdata0.xi1.xp1.       pmos_b             1.00 
      905 xsa_logic.xdata0.xi1.xn1.       nmos_b             1.00 
      906 xsa_logic.xdata0.xi42.xn1.      nmos_b             1.00 
      907 xsa_logic.xdata0.xi42.xi9.      nmos_b             1.00 
      908 xsa_logic.xdata0.xi42.xp1.      pmos_b             1.00 
      909 xsa_logic.xdata0.xi42.xi10.     pmos_b             1.00 
      910 xsa_logic.xdata0.xi43.xn1.      nmos_b             1.00 
      911 xsa_logic.xdata0.xi43.xi9.      nmos_b             1.00 
      912 xsa_logic.xdata0.xi43.xp1.      pmos_b             1.00 
      913 xsa_logic.xdata0.xi43.xi10.     pmos_b             1.00 
      914 xsa_logic.xdata0.xi31.xn1.      nmos_b             1.00 
      915 xsa_logic.xdata0.xi31.xi9.      nmos_b             1.00 
      916 xsa_logic.xdata0.xi31.xp1.      pmos_b             1.00 
      917 xsa_logic.xdata0.xi31.xi10.     pmos_b             1.00 
      918 xsa_logic.xdata0.xi37.xn1.      nmos_b             1.00 
      919 xsa_logic.xdata0.xi37.xi9.      nmos_b             1.00 
      920 xsa_logic.xdata0.xi37.xp1.      pmos_b             1.00 
      921 xsa_logic.xdata0.xi37.xi10.     pmos_b             1.00 
      922 xsa_logic.xdata5.xi1.xp1.       pmos_b             1.00 
      923 xsa_logic.xdata5.xi1.xn1.       nmos_b             1.00 
      924 xsa_logic.xdata5.xi42.xn1.      nmos_b             1.00 
      925 xsa_logic.xdata5.xi42.xi9.      nmos_b             1.00 
      926 xsa_logic.xdata5.xi42.xp1.      pmos_b             1.00 
      927 xsa_logic.xdata5.xi42.xi10.     pmos_b             1.00 
      928 xsa_logic.xdata5.xi43.xn1.      nmos_b             1.00 
      929 xsa_logic.xdata5.xi43.xi9.      nmos_b             1.00 
      930 xsa_logic.xdata5.xi43.xp1.      pmos_b             1.00 
      931 xsa_logic.xdata5.xi43.xi10.     pmos_b             1.00 
      932 xsa_logic.xdata5.xi31.xn1.      nmos_b             1.00 
      933 xsa_logic.xdata5.xi31.xi9.      nmos_b             1.00 
      934 xsa_logic.xdata5.xi31.xp1.      pmos_b             1.00 
      935 xsa_logic.xdata5.xi31.xi10.     pmos_b             1.00 
      936 xsa_logic.xdata5.xi37.xn1.      nmos_b             1.00 
      937 xsa_logic.xdata5.xi37.xi9.      nmos_b             1.00 
      938 xsa_logic.xdata5.xi37.xp1.      pmos_b             1.00 
      939 xsa_logic.xdata5.xi37.xi10.     pmos_b             1.00 
      940 xsa_logic.xrsh0.xi1.xp1.        pmos_b             1.00 
      941 xsa_logic.xrsh0.xi1.xn1.        nmos_b             1.00 
      942 xsa_logic.xrsh0.xi42.xn1.       nmos_b             1.00 
      943 xsa_logic.xrsh0.xi42.xi9.       nmos_b             1.00 
      944 xsa_logic.xrsh0.xi42.xp1.       pmos_b             1.00 
      945 xsa_logic.xrsh0.xi42.xi10.      pmos_b             1.00 
      946 xsa_logic.xrsh0.xi43.xn1.       nmos_b             1.00 
      947 xsa_logic.xrsh0.xi43.xi9.       nmos_b             1.00 
      948 xsa_logic.xrsh0.xi43.xp1.       pmos_b             1.00 
      949 xsa_logic.xrsh0.xi43.xi10.      pmos_b             1.00 
      950 xsa_logic.xrsh0.xi31.xn1.       nmos_b             1.00 
      951 xsa_logic.xrsh0.xi31.xi9.       nmos_b             1.00 
      952 xsa_logic.xrsh0.xi31.xp1.       pmos_b             1.00 
      953 xsa_logic.xrsh0.xi31.xi10.      pmos_b             1.00 
      954 xsa_logic.xrsh0.xi37.xn1.       nmos_b             1.00 
      955 xsa_logic.xrsh0.xi37.xi9.       nmos_b             1.00 
      956 xsa_logic.xrsh0.xi37.xp1.       pmos_b             1.00 
      957 xsa_logic.xrsh0.xi37.xi10.      pmos_b             1.00 
      958 xsa_logic.xrsh3.xi1.xp1.        pmos_b             1.00 
      959 xsa_logic.xrsh3.xi1.xn1.        nmos_b             1.00 
      960 xsa_logic.xrsh3.xi42.xn1.       nmos_b             1.00 
      961 xsa_logic.xrsh3.xi42.xi9.       nmos_b             1.00 
      962 xsa_logic.xrsh3.xi42.xp1.       pmos_b             1.00 
      963 xsa_logic.xrsh3.xi42.xi10.      pmos_b             1.00 
      964 xsa_logic.xrsh3.xi43.xn1.       nmos_b             1.00 
      965 xsa_logic.xrsh3.xi43.xi9.       nmos_b             1.00 
      966 xsa_logic.xrsh3.xi43.xp1.       pmos_b             1.00 
      967 xsa_logic.xrsh3.xi43.xi10.      pmos_b             1.00 
      968 xsa_logic.xrsh3.xi31.xn1.       nmos_b             1.00 
      969 xsa_logic.xrsh3.xi31.xi9.       nmos_b             1.00 
      970 xsa_logic.xrsh3.xi31.xp1.       pmos_b             1.00 
      971 xsa_logic.xrsh3.xi31.xi10.      pmos_b             1.00 
      972 xsa_logic.xrsh3.xi37.xn1.       nmos_b             1.00 
      973 xsa_logic.xrsh3.xi37.xi9.       nmos_b             1.00 
      974 xsa_logic.xrsh3.xi37.xp1.       pmos_b             1.00 
      975 xsa_logic.xrsh3.xi37.xi10.      pmos_b             1.00 
      976 xsa_logic.xrsh2.xi1.xp1.        pmos_b             1.00 
      977 xsa_logic.xrsh2.xi1.xn1.        nmos_b             1.00 
      978 xsa_logic.xrsh2.xi42.xn1.       nmos_b             1.00 
      979 xsa_logic.xrsh2.xi42.xi9.       nmos_b             1.00 
      980 xsa_logic.xrsh2.xi42.xp1.       pmos_b             1.00 
      981 xsa_logic.xrsh2.xi42.xi10.      pmos_b             1.00 
      982 xsa_logic.xrsh2.xi43.xn1.       nmos_b             1.00 
      983 xsa_logic.xrsh2.xi43.xi9.       nmos_b             1.00 
      984 xsa_logic.xrsh2.xi43.xp1.       pmos_b             1.00 
      985 xsa_logic.xrsh2.xi43.xi10.      pmos_b             1.00 
      986 xsa_logic.xrsh2.xi31.xn1.       nmos_b             1.00 
      987 xsa_logic.xrsh2.xi31.xi9.       nmos_b             1.00 
      988 xsa_logic.xrsh2.xi31.xp1.       pmos_b             1.00 
      989 xsa_logic.xrsh2.xi31.xi10.      pmos_b             1.00 
      990 xsa_logic.xrsh2.xi37.xn1.       nmos_b             1.00 
      991 xsa_logic.xrsh2.xi37.xi9.       nmos_b             1.00 
      992 xsa_logic.xrsh2.xi37.xp1.       pmos_b             1.00 
      993 xsa_logic.xrsh2.xi37.xi10.      pmos_b             1.00 
      994 xsa_logic.xrsh1.xi1.xp1.        pmos_b             1.00 
      995 xsa_logic.xrsh1.xi1.xn1.        nmos_b             1.00 
      996 xsa_logic.xrsh1.xi42.xn1.       nmos_b             1.00 
      997 xsa_logic.xrsh1.xi42.xi9.       nmos_b             1.00 
      998 xsa_logic.xrsh1.xi42.xp1.       pmos_b             1.00 
      999 xsa_logic.xrsh1.xi42.xi10.      pmos_b             1.00 
     1000 xsa_logic.xrsh1.xi43.xn1.       nmos_b             1.00 
     1001 xsa_logic.xrsh1.xi43.xi9.       nmos_b             1.00 
     1002 xsa_logic.xrsh1.xi43.xp1.       pmos_b             1.00 
     1003 xsa_logic.xrsh1.xi43.xi10.      pmos_b             1.00 
     1004 xsa_logic.xrsh1.xi31.xn1.       nmos_b             1.00 
     1005 xsa_logic.xrsh1.xi31.xi9.       nmos_b             1.00 
     1006 xsa_logic.xrsh1.xi31.xp1.       pmos_b             1.00 
     1007 xsa_logic.xrsh1.xi31.xi10.      pmos_b             1.00 
     1008 xsa_logic.xrsh1.xi37.xn1.       nmos_b             1.00 
     1009 xsa_logic.xrsh1.xi37.xi9.       nmos_b             1.00 
     1010 xsa_logic.xrsh1.xi37.xp1.       pmos_b             1.00 
     1011 xsa_logic.xrsh1.xi37.xi10.      pmos_b             1.00 
     1012 xsa_logic.xrsh4.xi1.xp1.        pmos_b             1.00 
     1013 xsa_logic.xrsh4.xi1.xn1.        nmos_b             1.00 
     1014 xsa_logic.xrsh4.xi42.xn1.       nmos_b             1.00 
     1015 xsa_logic.xrsh4.xi42.xi9.       nmos_b             1.00 
     1016 xsa_logic.xrsh4.xi42.xp1.       pmos_b             1.00 
     1017 xsa_logic.xrsh4.xi42.xi10.      pmos_b             1.00 
     1018 xsa_logic.xrsh4.xi43.xn1.       nmos_b             1.00 
     1019 xsa_logic.xrsh4.xi43.xi9.       nmos_b             1.00 
     1020 xsa_logic.xrsh4.xi43.xp1.       pmos_b             1.00 
     1021 xsa_logic.xrsh4.xi43.xi10.      pmos_b             1.00 
     1022 xsa_logic.xrsh4.xi31.xn1.       nmos_b             1.00 
     1023 xsa_logic.xrsh4.xi31.xi9.       nmos_b             1.00 
     1024 xsa_logic.xrsh4.xi31.xp1.       pmos_b             1.00 
     1025 xsa_logic.xrsh4.xi31.xi10.      pmos_b             1.00 
     1026 xsa_logic.xrsh4.xi37.xn1.       nmos_b             1.00 
     1027 xsa_logic.xrsh4.xi37.xi9.       nmos_b             1.00 
     1028 xsa_logic.xrsh4.xi37.xp1.       pmos_b             1.00 
     1029 xsa_logic.xrsh4.xi37.xi10.      pmos_b             1.00 
     1030 xsa_logic.xdata7.xi1.xp1.       pmos_b             1.00 
     1031 xsa_logic.xdata7.xi1.xn1.       nmos_b             1.00 
     1032 xsa_logic.xdata7.xi42.xn1.      nmos_b             1.00 
     1033 xsa_logic.xdata7.xi42.xi9.      nmos_b             1.00 
     1034 xsa_logic.xdata7.xi42.xp1.      pmos_b             1.00 
     1035 xsa_logic.xdata7.xi42.xi10.     pmos_b             1.00 
     1036 xsa_logic.xdata7.xi43.xn1.      nmos_b             1.00 
     1037 xsa_logic.xdata7.xi43.xi9.      nmos_b             1.00 
     1038 xsa_logic.xdata7.xi43.xp1.      pmos_b             1.00 
     1039 xsa_logic.xdata7.xi43.xi10.     pmos_b             1.00 
     1040 xsa_logic.xdata7.xi31.xn1.      nmos_b             1.00 
     1041 xsa_logic.xdata7.xi31.xi9.      nmos_b             1.00 
     1042 xsa_logic.xdata7.xi31.xp1.      pmos_b             1.00 
     1043 xsa_logic.xdata7.xi31.xi10.     pmos_b             1.00 
     1044 xsa_logic.xdata7.xi37.xn1.      nmos_b             1.00 
     1045 xsa_logic.xdata7.xi37.xi9.      nmos_b             1.00 
     1046 xsa_logic.xdata7.xi37.xp1.      pmos_b             1.00 
     1047 xsa_logic.xdata7.xi37.xi10.     pmos_b             1.00 
     1048 xsa_logic.xrsh5.xi1.xp1.        pmos_b             1.00 
     1049 xsa_logic.xrsh5.xi1.xn1.        nmos_b             1.00 
     1050 xsa_logic.xrsh5.xi42.xn1.       nmos_b             1.00 
     1051 xsa_logic.xrsh5.xi42.xi9.       nmos_b             1.00 
     1052 xsa_logic.xrsh5.xi42.xp1.       pmos_b             1.00 
     1053 xsa_logic.xrsh5.xi42.xi10.      pmos_b             1.00 
     1054 xsa_logic.xrsh5.xi43.xn1.       nmos_b             1.00 
     1055 xsa_logic.xrsh5.xi43.xi9.       nmos_b             1.00 
     1056 xsa_logic.xrsh5.xi43.xp1.       pmos_b             1.00 
     1057 xsa_logic.xrsh5.xi43.xi10.      pmos_b             1.00 
     1058 xsa_logic.xrsh5.xi31.xn1.       nmos_b             1.00 
     1059 xsa_logic.xrsh5.xi31.xi9.       nmos_b             1.00 
     1060 xsa_logic.xrsh5.xi31.xp1.       pmos_b             1.00 
     1061 xsa_logic.xrsh5.xi31.xi10.      pmos_b             1.00 
     1062 xsa_logic.xrsh5.xi37.xn1.       nmos_b             1.00 
     1063 xsa_logic.xrsh5.xi37.xi9.       nmos_b             1.00 
     1064 xsa_logic.xrsh5.xi37.xp1.       pmos_b             1.00 
     1065 xsa_logic.xrsh5.xi37.xi10.      pmos_b             1.00 
     1066 xsa_logic.xdata6.xi1.xp1.       pmos_b             1.00 
     1067 xsa_logic.xdata6.xi1.xn1.       nmos_b             1.00 
     1068 xsa_logic.xdata6.xi42.xn1.      nmos_b             1.00 
     1069 xsa_logic.xdata6.xi42.xi9.      nmos_b             1.00 
     1070 xsa_logic.xdata6.xi42.xp1.      pmos_b             1.00 
     1071 xsa_logic.xdata6.xi42.xi10.     pmos_b             1.00 
     1072 xsa_logic.xdata6.xi43.xn1.      nmos_b             1.00 
     1073 xsa_logic.xdata6.xi43.xi9.      nmos_b             1.00 
     1074 xsa_logic.xdata6.xi43.xp1.      pmos_b             1.00 
     1075 xsa_logic.xdata6.xi43.xi10.     pmos_b             1.00 
     1076 xsa_logic.xdata6.xi31.xn1.      nmos_b             1.00 
     1077 xsa_logic.xdata6.xi31.xi9.      nmos_b             1.00 
     1078 xsa_logic.xdata6.xi31.xp1.      pmos_b             1.00 
     1079 xsa_logic.xdata6.xi31.xi10.     pmos_b             1.00 
     1080 xsa_logic.xdata6.xi37.xn1.      nmos_b             1.00 
     1081 xsa_logic.xdata6.xi37.xi9.      nmos_b             1.00 
     1082 xsa_logic.xdata6.xi37.xp1.      pmos_b             1.00 
     1083 xsa_logic.xdata6.xi37.xi10.     pmos_b             1.00 
     1084 xsa_logic.xdata4.xi1.xp1.       pmos_b             1.00 
     1085 xsa_logic.xdata4.xi1.xn1.       nmos_b             1.00 
     1086 xsa_logic.xdata4.xi42.xn1.      nmos_b             1.00 
     1087 xsa_logic.xdata4.xi42.xi9.      nmos_b             1.00 
     1088 xsa_logic.xdata4.xi42.xp1.      pmos_b             1.00 
     1089 xsa_logic.xdata4.xi42.xi10.     pmos_b             1.00 
     1090 xsa_logic.xdata4.xi43.xn1.      nmos_b             1.00 
     1091 xsa_logic.xdata4.xi43.xi9.      nmos_b             1.00 
     1092 xsa_logic.xdata4.xi43.xp1.      pmos_b             1.00 
     1093 xsa_logic.xdata4.xi43.xi10.     pmos_b             1.00 
     1094 xsa_logic.xdata4.xi31.xn1.      nmos_b             1.00 
     1095 xsa_logic.xdata4.xi31.xi9.      nmos_b             1.00 
     1096 xsa_logic.xdata4.xi31.xp1.      pmos_b             1.00 
     1097 xsa_logic.xdata4.xi31.xi10.     pmos_b             1.00 
     1098 xsa_logic.xdata4.xi37.xn1.      nmos_b             1.00 
     1099 xsa_logic.xdata4.xi37.xi9.      nmos_b             1.00 
     1100 xsa_logic.xdata4.xi37.xp1.      pmos_b             1.00 
     1101 xsa_logic.xdata4.xi37.xi10.     pmos_b             1.00 
     1102 xsa_logic.xrsh6.xi1.xp1.        pmos_b             1.00 
     1103 xsa_logic.xrsh6.xi1.xn1.        nmos_b             1.00 
     1104 xsa_logic.xrsh6.xi42.xn1.       nmos_b             1.00 
     1105 xsa_logic.xrsh6.xi42.xi9.       nmos_b             1.00 
     1106 xsa_logic.xrsh6.xi42.xp1.       pmos_b             1.00 
     1107 xsa_logic.xrsh6.xi42.xi10.      pmos_b             1.00 
     1108 xsa_logic.xrsh6.xi43.xn1.       nmos_b             1.00 
     1109 xsa_logic.xrsh6.xi43.xi9.       nmos_b             1.00 
     1110 xsa_logic.xrsh6.xi43.xp1.       pmos_b             1.00 
     1111 xsa_logic.xrsh6.xi43.xi10.      pmos_b             1.00 
     1112 xsa_logic.xrsh6.xi31.xn1.       nmos_b             1.00 
     1113 xsa_logic.xrsh6.xi31.xi9.       nmos_b             1.00 
     1114 xsa_logic.xrsh6.xi31.xp1.       pmos_b             1.00 
     1115 xsa_logic.xrsh6.xi31.xi10.      pmos_b             1.00 
     1116 xsa_logic.xrsh6.xi37.xn1.       nmos_b             1.00 
     1117 xsa_logic.xrsh6.xi37.xi9.       nmos_b             1.00 
     1118 xsa_logic.xrsh6.xi37.xp1.       pmos_b             1.00 
     1119 xsa_logic.xrsh6.xi37.xi10.      pmos_b             1.00 
     1120 xsa_logic.xrsh7.xi1.xp1.        pmos_b             1.00 
     1121 xsa_logic.xrsh7.xi1.xn1.        nmos_b             1.00 
     1122 xsa_logic.xrsh7.xi42.xn1.       nmos_b             1.00 
     1123 xsa_logic.xrsh7.xi42.xi9.       nmos_b             1.00 
     1124 xsa_logic.xrsh7.xi42.xp1.       pmos_b             1.00 
     1125 xsa_logic.xrsh7.xi42.xi10.      pmos_b             1.00 
     1126 xsa_logic.xrsh7.xi43.xn1.       nmos_b             1.00 
     1127 xsa_logic.xrsh7.xi43.xi9.       nmos_b             1.00 
     1128 xsa_logic.xrsh7.xi43.xp1.       pmos_b             1.00 
     1129 xsa_logic.xrsh7.xi43.xi10.      pmos_b             1.00 
     1130 xsa_logic.xrsh7.xi31.xn1.       nmos_b             1.00 
     1131 xsa_logic.xrsh7.xi31.xi9.       nmos_b             1.00 
     1132 xsa_logic.xrsh7.xi31.xp1.       pmos_b             1.00 
     1133 xsa_logic.xrsh7.xi31.xi10.      pmos_b             1.00 
     1134 xsa_logic.xrsh7.xi37.xn1.       nmos_b             1.00 
     1135 xsa_logic.xrsh7.xi37.xi9.       nmos_b             1.00 
     1136 xsa_logic.xrsh7.xi37.xp1.       pmos_b             1.00 
     1137 xsa_logic.xrsh7.xi37.xi10.      pmos_b             1.00 
     1138 xi24.xsa_dac.xswdac_0.xi7.xp1.  pmos_b             1.00 
     1139 xi24.xsa_dac.xswdac_0.xi7.xn1.  nmos_b             1.00 
     1140 xi24.xsa_dac.xswdac_0.xi3.xp1.  pmos_b             1.00 
     1141 xi24.xsa_dac.xswdac_0.xi3.xn1.  nmos_b             1.00 
     1142 xi24.xsa_dac.xswdac_0.xi20.xp1. pmos_b             1.00 
     1143 xi24.xsa_dac.xswdac_0.xi20.xn1. nmos_b             1.00 
     1144 xi24.xsa_dac.xswdac_0.xi1.xp1.  pmos_b             1.00 
     1145 xi24.xsa_dac.xswdac_0.xi1.xn1.  nmos_b             1.00 
     1146 xi24.xsa_dac.xswdac_0.xi2.xn1.  nmos_b             1.00 
     1147 xi24.xsa_dac.xswdac_0.xi2.xi9.  nmos_b             1.00 
     1148 xi24.xsa_dac.xswdac_0.xi2.xp1.  pmos_b             1.00 
     1149 xi24.xsa_dac.xswdac_0.xi2.xi10. pmos_b             1.00 
     1150 xi24.xsa_dac.xswdac_0.xi19.xn1. nmos_b             1.00 
     1151 xi24.xsa_dac.xswdac_0.xi19.xi9. nmos_b             1.00 
     1152 xi24.xsa_dac.xswdac_0.xi19.xp1. pmos_b             1.00 
     1153 xi24.xsa_dac.xswdac_0.xi19.xi10.
                                            pmos_b             1.00 
     1154 xi24.xsa_dac.xswdac_1.xi7.xp1.  pmos_b             1.00 
     1155 xi24.xsa_dac.xswdac_1.xi7.xn1.  nmos_b             1.00 
     1156 xi24.xsa_dac.xswdac_1.xi3.xp1.  pmos_b             1.00 
     1157 xi24.xsa_dac.xswdac_1.xi3.xn1.  nmos_b             1.00 
     1158 xi24.xsa_dac.xswdac_1.xi20.xp1. pmos_b             1.00 
[...]



 subckt        xsa_logi      xsa_logi      xsa_logi      xsa_logi
 element  1104:g1       1105:g1       1106:g1       1107:g1      
  r value      10.0000      1.000e+15      10.0000      1.000e+15



 subckt        xsa_logi      xsa_logi      xsa_logi      xsa_logi
 element  1108:g1       1109:g1       1110:g1       1111:g1      
  r value     1.000e+15     1.000e+15      10.0000       10.0000 



 subckt        xsa_logi      xsa_logi      xsa_logi      xsa_logi
 element  1112:g1       1113:g1       1114:g1       1115:g1      
  r value     1.000e+15     1.000e+15      10.0000       10.0000 



 subckt        xsa_logi      xsa_logi      xsa_logi      xsa_logi
 element  1116:g1       1117:g1       1118:g1       1119:g1      
  r value      10.0000      1.000e+15      10.0000      1.000e+15



 subckt        xsa_logi      xsa_logi      xsa_logi      xsa_logi
 element  1120:g1       1121:g1       1122:g1       1123:g1      
  r value     1.000e+15      10.0000       10.0000      1.000e+15



 subckt        xsa_logi      xsa_logi      xsa_logi      xsa_logi
 element  1124:g1       1125:g1       1126:g1       1127:g1      
  r value      10.0000      1.000e+15     1.000e+15     1.000e+15



 subckt        xsa_logi      xsa_logi      xsa_logi      xsa_logi
 element  1128:g1       1129:g1       1130:g1       1131:g1      
  r value      10.0000       10.0000      1.000e+15     1.000e+15



 subckt        xsa_logi      xsa_logi      xsa_logi      xsa_logi
 element  1132:g1       1133:g1       1134:g1       1135:g1      
  r value      10.0000       10.0000       10.0000      1.000e+15



 subckt        xsa_logi      xsa_logi      xi24.xsa      xi24.xsa
 element  1136:g1       1137:g1       1138:g1       1139:g1      
  r value      10.0000      1.000e+15      10.0000      1.000e+15



 subckt        xi24.xsa      xi24.xsa      xi24.xsa      xi24.xsa
 element  1140:g1       1141:g1       1142:g1       1143:g1      
  r value     1.000e+15      10.0000       10.0000      1.000e+15



 subckt        xi24.xsa      xi24.xsa      xi24.xsa      xi24.xsa
 element  1144:g1       1145:g1       1146:g1       1147:g1      
  r value     1.000e+15      10.0000      1.000e+15      10.0000 



 subckt        xi24.xsa      xi24.xsa      xi24.xsa      xi24.xsa
 element  1148:g1       1149:g1       1150:g1       1151:g1      
  r value     1.000e+15      10.0000       10.0000       10.0000 



 subckt        xi24.xsa      xi24.xsa      xi24.xsa      xi24.xsa
 element  1152:g1       1153:g1       1154:g1       1155:g1      
  r value     1.000e+15     1.000e+15      10.0000      1.000e+15



 subckt        xi24.xsa      xi24.xsa      xi24.xsa      xi24.xsa
 element  1156:g1       1157:g1       1158:g1       1159:g1      
  r value     1.000e+15      10.0000       10.0000      1.000e+15



 subckt        xi24.xsa      xi24.xsa      xi24.xsa      xi24.xsa
 element  1160:g1       1161:g1       1162:g1       1163:g1      
  r value     1.000e+15      10.0000      1.000e+15      10.0000 



 subckt        xi24.xsa      xi24.xsa      xi24.xsa      xi24.xsa
 element  1164:g1       1165:g1       1166:g1       1167:g1      
  r value     1.000e+15      10.0000       10.0000       10.0000 



 subckt        xi24.xsa      xi24.xsa      xi24.xsa      xi24.xsa
 element  1168:g1       1169:g1       1170:g1       1171:g1      
  r value     1.000e+15     1.000e+15      10.0000      1.000e+15



 subckt        xi24.xsa      xi24.xsa      xi24.xsa      xi24.xsa
 element  1172:g1       1173:g1       1174:g1       1175:g1      
  r value     1.000e+15      10.0000       10.0000      1.000e+15



 subckt        xi24.xsa      xi24.xsa      xi24.xsa      xi24.xsa
 element  1176:g1       1177:g1       1178:g1       1179:g1      
  r value     1.000e+15      10.0000      1.000e+15      10.0000 



 subckt        xi24.xsa      xi24.xsa      xi24.xsa      xi24.xsa
 element  1180:g1       1181:g1       1182:g1       1183:g1      
  r value     1.000e+15      10.0000       10.0000       10.0000 



 subckt        xi24.xsa      xi24.xsa      xi24.xsa      xi24.xsa
 element  1184:g1       1185:g1       1186:g1       1187:g1      
  r value     1.000e+15     1.000e+15      10.0000      1.000e+15



 subckt        xi24.xsa      xi24.xsa      xi24.xsa      xi24.xsa
 element  1188:g1       1189:g1       1190:g1       1191:g1      
  r value     1.000e+15      10.0000       10.0000      1.000e+15



 subckt        xi24.xsa      xi24.xsa      xi24.xsa      xi24.xsa
 element  1192:g1       1193:g1       1194:g1       1195:g1      
  r value     1.000e+15      10.0000      1.000e+15      10.0000 



 subckt        xi24.xsa      xi24.xsa      xi24.xsa      xi24.xsa
 element  1196:g1       1197:g1       1198:g1       1199:g1      
  r value     1.000e+15      10.0000       10.0000       10.0000 



 subckt        xi24.xsa      xi24.xsa      xi24.xsa      xi24.xsa
 element  1200:g1       1201:g1       1202:g1       1203:g1      
  r value     1.000e+15     1.000e+15      10.0000      1.000e+15



 subckt        xi24.xsa      xi24.xsa      xi24.xsa      xi24.xsa
 element  1204:g1       1205:g1       1206:g1       1207:g1      
  r value     1.000e+15      10.0000       10.0000      1.000e+15



 subckt        xi24.xsa      xi24.xsa      xi24.xsa      xi24.xsa
 element  1208:g1       1209:g1       1210:g1       1211:g1      
  r value     1.000e+15      10.0000      1.000e+15      10.0000 



 subckt        xi24.xsa      xi24.xsa      xi24.xsa      xi24.xsa
 element  1212:g1       1213:g1       1214:g1       1215:g1      
  r value     1.000e+15      10.0000       10.0000       10.0000 



 subckt        xi24.xsa      xi24.xsa      xi24.xsa      xi24.xsa
 element  1216:g1       1217:g1       1218:g1       1219:g1      
  r value     1.000e+15     1.000e+15      10.0000      1.000e+15



 subckt        xi24.xsa      xi24.xsa      xi24.xsa      xi24.xsa
 element  1220:g1       1221:g1       1222:g1       1223:g1      
  r value     1.000e+15      10.0000       10.0000      1.000e+15



 subckt        xi24.xsa      xi24.xsa      xi24.xsa      xi24.xsa
 element  1224:g1       1225:g1       1226:g1       1227:g1      
  r value     1.000e+15      10.0000      1.000e+15      10.0000 



 subckt        xi24.xsa      xi24.xsa      xi24.xsa      xi24.xsa
 element  1228:g1       1229:g1       1230:g1       1231:g1      
  r value     1.000e+15      10.0000       10.0000       10.0000 



 subckt        xi24.xsa      xi24.xsa      xi24.xsa      xi24.xsa
 element  1232:g1       1233:g1       1234:g1       1235:g1      
  r value     1.000e+15     1.000e+15      10.0000      1.000e+15



 subckt        xi24.xsa      xi24.xsa      xi24.xsa      xi24.xsa
 element  1236:g1       1237:g1       1238:g1       1239:g1      
  r value     1.000e+15      10.0000       10.0000      1.000e+15



 subckt        xi24.xsa      xi24.xsa      xi24.xsa      xi24.xsa
 element  1240:g1       1241:g1       1242:g1       1243:g1      
  r value     1.000e+15      10.0000      1.000e+15      10.0000 



 subckt        xi24.xsa      xi24.xsa      xi24.xsa      xi24.xsa
 element  1244:g1       1245:g1       1246:g1       1247:g1      
  r value     1.000e+15      10.0000       10.0000       10.0000 



 subckt        xi24.xsa      xi24.xsa      xi24.xsa      xi24.xsa
 element  1248:g1       1249:g1       1250:g1       1251:g1      
  r value     1.000e+15     1.000e+15      10.0000      1.000e+15



 subckt        xi24.xsa      xi24.xsa      xi24.xsa      xi24.xsa
 element  1252:g1       1253:g1       1254:g1       1255:g1      
  r value     1.000e+15      10.0000       10.0000      1.000e+15



 subckt        xi24.xsa      xi24.xsa      xi24.xsa      xi24.xsa
 element  1256:g1       1257:g1       1258:g1       1259:g1      
  r value     1.000e+15      10.0000      1.000e+15      10.0000 



 subckt        xi24.xsa      xi24.xsa      xi24.xsa      xi24.xsa
 element  1260:g1       1261:g1       1262:g1       1263:g1      
  r value     1.000e+15      10.0000       10.0000       10.0000 



 subckt        xi24.xsa      xi24.xsa      xi24.xsa      xi24.xsa
 element  1264:g1       1265:g1       1266:g1       1267:g1      
  r value     1.000e+15     1.000e+15      10.0000      1.000e+15



 subckt        xi24.xsa      xi24.xsa      xi24.xsa      xi24.xsa
 element  1268:g1       1269:g1       1270:g1       1271:g1      
  r value     1.000e+15      10.0000       10.0000      1.000e+15



 subckt        xi24.xsa      xi24.xsa      xi24.xsa      xi24.xsa
 element  1272:g1       1273:g1       1274:g1       1275:g1      
  r value     1.000e+15      10.0000      1.000e+15      10.0000 



 subckt        xi24.xsa      xi24.xsa      xi24.xsa      xi24.xsa
 element  1276:g1       1277:g1       1278:g1       1279:g1      
  r value     1.000e+15      10.0000       10.0000       10.0000 



 subckt        xi24.xsa      xi24.xsa      xi24.xsa      xi24.xsa
 element  1280:g1       1281:g1       1282:g1       1283:g1      
  r value     1.000e+15     1.000e+15      10.0000      1.000e+15



 subckt        xi24.xsa      xi24.xsa      xi24.xsa      xi24.xsa
 element  1284:g1       1285:g1       1286:g1       1287:g1      
  r value     1.000e+15      10.0000       10.0000      1.000e+15



 subckt        xi24.xsa      xi24.xsa      xi24.xsa      xi24.xsa
 element  1288:g1       1289:g1       1290:g1       1291:g1      
  r value     1.000e+15      10.0000      1.000e+15      10.0000 



 subckt        xi24.xsa      xi24.xsa      xi24.xsa      xi24.xsa
 element  1292:g1       1293:g1       1294:g1       1295:g1      
  r value     1.000e+15      10.0000       10.0000       10.0000 



 subckt        xi24.xsa      xi24.xsa      xi23.xsa      xi23.xsa
 element  1296:g1       1297:g1       1298:g1       1299:g1      
  r value     1.000e+15     1.000e+15      10.0000      1.000e+15



 subckt        xi23.xsa      xi23.xsa      xi23.xsa      xi23.xsa
 element  1300:g1       1301:g1       1302:g1       1303:g1      
  r value     1.000e+15      10.0000       10.0000      1.000e+15



 subckt        xi23.xsa      xi23.xsa      xi23.xsa      xi23.xsa
 element  1304:g1       1305:g1       1306:g1       1307:g1      
  r value     1.000e+15      10.0000      1.000e+15      10.0000 



 subckt        xi23.xsa      xi23.xsa      xi23.xsa      xi23.xsa
 element  1308:g1       1309:g1       1310:g1       1311:g1      
  r value     1.000e+15      10.0000       10.0000       10.0000 



 subckt        xi23.xsa      xi23.xsa      xi23.xsa      xi23.xsa
 element  1312:g1       1313:g1       1314:g1       1315:g1      
  r value     1.000e+15     1.000e+15      10.0000      1.000e+15



 subckt        xi23.xsa      xi23.xsa      xi23.xsa      xi23.xsa
 element  1316:g1       1317:g1       1318:g1       1319:g1      
  r value     1.000e+15      10.0000       10.0000      1.000e+15



 subckt        xi23.xsa      xi23.xsa      xi23.xsa      xi23.xsa
 element  1320:g1       1321:g1       1322:g1       1323:g1      
  r value     1.000e+15      10.0000      1.000e+15      10.0000 



 subckt        xi23.xsa      xi23.xsa      xi23.xsa      xi23.xsa
 element  1324:g1       1325:g1       1326:g1       1327:g1      
  r value     1.000e+15      10.0000       10.0000       10.0000 



 subckt        xi23.xsa      xi23.xsa      xi23.xsa      xi23.xsa
 element  1328:g1       1329:g1       1330:g1       1331:g1      
  r value     1.000e+15     1.000e+15      10.0000      1.000e+15



 subckt        xi23.xsa      xi23.xsa      xi23.xsa      xi23.xsa
 element  1332:g1       1333:g1       1334:g1       1335:g1      
  r value     1.000e+15      10.0000       10.0000      1.000e+15



 subckt        xi23.xsa      xi23.xsa      xi23.xsa      xi23.xsa
 element  1336:g1       1337:g1       1338:g1       1339:g1      
  r value     1.000e+15      10.0000      1.000e+15      10.0000 



 subckt        xi23.xsa      xi23.xsa      xi23.xsa      xi23.xsa
 element  1340:g1       1341:g1       1342:g1       1343:g1      
  r value     1.000e+15      10.0000       10.0000       10.0000 



 subckt        xi23.xsa      xi23.xsa      xi23.xsa      xi23.xsa
 element  1344:g1       1345:g1       1346:g1       1347:g1      
  r value     1.000e+15     1.000e+15      10.0000      1.000e+15



 subckt        xi23.xsa      xi23.xsa      xi23.xsa      xi23.xsa
 element  1348:g1       1349:g1       1350:g1       1351:g1      
  r value     1.000e+15      10.0000       10.0000      1.000e+15



 subckt        xi23.xsa      xi23.xsa      xi23.xsa      xi23.xsa
 element  1352:g1       1353:g1       1354:g1       1355:g1      
  r value     1.000e+15      10.0000      1.000e+15      10.0000 



 subckt        xi23.xsa      xi23.xsa      xi23.xsa      xi23.xsa
 element  1356:g1       1357:g1       1358:g1       1359:g1      
  r value     1.000e+15      10.0000       10.0000       10.0000 



 subckt        xi23.xsa      xi23.xsa      xi23.xsa      xi23.xsa
 element  1360:g1       1361:g1       1362:g1       1363:g1      
  r value     1.000e+15     1.000e+15      10.0000      1.000e+15



 subckt        xi23.xsa      xi23.xsa      xi23.xsa      xi23.xsa
 element  1364:g1       1365:g1       1366:g1       1367:g1      
  r value     1.000e+15      10.0000       10.0000      1.000e+15



 subckt        xi23.xsa      xi23.xsa      xi23.xsa      xi23.xsa
 element  1368:g1       1369:g1       1370:g1       1371:g1      
  r value     1.000e+15      10.0000      1.000e+15      10.0000 



 subckt        xi23.xsa      xi23.xsa      xi23.xsa      xi23.xsa
 element  1372:g1       1373:g1       1374:g1       1375:g1      
  r value     1.000e+15      10.0000       10.0000       10.0000 



 subckt        xi23.xsa      xi23.xsa      xi23.xsa      xi23.xsa
 element  1376:g1       1377:g1       1378:g1       1379:g1      
  r value     1.000e+15     1.000e+15      10.0000      1.000e+15



 subckt        xi23.xsa      xi23.xsa      xi23.xsa      xi23.xsa
 element  1380:g1       1381:g1       1382:g1       1383:g1      
  r value     1.000e+15      10.0000       10.0000      1.000e+15



 subckt        xi23.xsa      xi23.xsa      xi23.xsa      xi23.xsa
 element  1384:g1       1385:g1       1386:g1       1387:g1      
  r value     1.000e+15      10.0000      1.000e+15      10.0000 



 subckt        xi23.xsa      xi23.xsa      xi23.xsa      xi23.xsa
 element  1388:g1       1389:g1       1390:g1       1391:g1      
  r value     1.000e+15      10.0000       10.0000       10.0000 



 subckt        xi23.xsa      xi23.xsa      xi23.xsa      xi23.xsa
 element  1392:g1       1393:g1       1394:g1       1395:g1      
  r value     1.000e+15     1.000e+15      10.0000      1.000e+15



 subckt        xi23.xsa      xi23.xsa      xi23.xsa      xi23.xsa
 element  1396:g1       1397:g1       1398:g1       1399:g1      
  r value     1.000e+15      10.0000       10.0000      1.000e+15



 subckt        xi23.xsa      xi23.xsa      xi23.xsa      xi23.xsa
 element  1400:g1       1401:g1       1402:g1       1403:g1      
  r value     1.000e+15      10.0000      1.000e+15      10.0000 



 subckt        xi23.xsa      xi23.xsa      xi23.xsa      xi23.xsa
 element  1404:g1       1405:g1       1406:g1       1407:g1      
  r value     1.000e+15      10.0000       10.0000       10.0000 



 subckt        xi23.xsa      xi23.xsa      xi23.xsa      xi23.xsa
 element  1408:g1       1409:g1       1410:g1       1411:g1      
  r value     1.000e+15     1.000e+15      10.0000      1.000e+15



 subckt        xi23.xsa      xi23.xsa      xi23.xsa      xi23.xsa
 element  1412:g1       1413:g1       1414:g1       1415:g1      
  r value     1.000e+15      10.0000       10.0000      1.000e+15



 subckt        xi23.xsa      xi23.xsa      xi23.xsa      xi23.xsa
 element  1416:g1       1417:g1       1418:g1       1419:g1      
  r value     1.000e+15      10.0000      1.000e+15      10.0000 



 subckt        xi23.xsa      xi23.xsa      xi23.xsa      xi23.xsa
 element  1420:g1       1421:g1       1422:g1       1423:g1      
  r value     1.000e+15      10.0000       10.0000       10.0000 



 subckt        xi23.xsa      xi23.xsa      xi23.xsa      xi23.xsa
 element  1424:g1       1425:g1       1426:g1       1427:g1      
  r value     1.000e+15     1.000e+15      10.0000      1.000e+15



 subckt        xi23.xsa      xi23.xsa      xi23.xsa      xi23.xsa
 element  1428:g1       1429:g1       1430:g1       1431:g1      
  r value     1.000e+15      10.0000       10.0000      1.000e+15



 subckt        xi23.xsa      xi23.xsa      xi23.xsa      xi23.xsa
 element  1432:g1       1433:g1       1434:g1       1435:g1      
  r value     1.000e+15      10.0000      1.000e+15      10.0000 



 subckt        xi23.xsa      xi23.xsa      xi23.xsa      xi23.xsa
 element  1436:g1       1437:g1       1438:g1       1439:g1      
  r value     1.000e+15      10.0000       10.0000       10.0000 



 subckt        xi23.xsa      xi23.xsa      xi23.xsa      xi23.xsa
 element  1440:g1       1441:g1       1442:g1       1443:g1      
  r value     1.000e+15     1.000e+15      10.0000      1.000e+15



 subckt        xi23.xsa      xi23.xsa      xi23.xsa      xi23.xsa
 element  1444:g1       1445:g1       1446:g1       1447:g1      
  r value     1.000e+15      10.0000       10.0000      1.000e+15



 subckt        xi23.xsa      xi23.xsa      xi23.xsa      xi23.xsa
 element  1448:g1       1449:g1       1450:g1       1451:g1      
  r value     1.000e+15      10.0000      1.000e+15      10.0000 



 subckt        xi23.xsa      xi23.xsa      xi23.xsa      xi23.xsa
 element  1452:g1       1453:g1       1454:g1       1455:g1      
  r value     1.000e+15      10.0000       10.0000       10.0000 



 subckt        xi23.xsa      xi23.xsa
 element  1456:g1       1457:g1      
  r value     1.000e+15     1.000e+15




 **** voltage-controlled voltage sources


 subckt                      xcmp    
 element     0:evcm1       4:evcvs   
  volts       500.0000m       1.0842f
  current     -11.0010p    -1.568e-27



 **error** stop simulation by signal SIGINT = 2

 ******  
 * idc_mod simulation

 ****** job statistics summary tnom=  25.000 temp=  60.000 ******
  
 ******  Machine Information  ******
 CPU:
 model name	: Intel(R) Core(TM) i7-7820X CPU @ 3.60GHz
 cpu MHz	: 1199.926
  
 OS:
 Linux version 3.10.0-957.21.3.el7.x86_64 (mockbuild@kbuilder.bsys.centos.org) (gcc version 4.8.5 20150623 (Red Hat 4.8.5-36) (GCC) ) #1 SMP Tue Jun 18 16:35:19 UTC 2019


  ******  HSPICE Threads Information  ******

  Command Line Threads Count :     1
  Available CPU Count        :    16
  Actual Threads Count       :     1


  ******  Circuit Statistics  ******
  # nodes       =     746 # elements   =    4915
  # resistors   =    2407 # capacitors =    1384 # inductors   =       0
  # mutual_inds =       0 # vccs       =    1110 # vcvs        =       2
  # cccs        =       0 # ccvs       =       0 # volt_srcs   =      12
  # curr_srcs   =       0 # diodes     =       0 # bjts        =       0
  # jfets       =       0 # mosfets    =       0 # U elements  =       0
  # T elements  =       0 # W elements =       0 # B elements  =       0
  # S elements  =       0 # P elements =       0 # va device   =       0
  # vector_srcs =       0 # N elements =       0


  ******  Runtime Statistics (seconds)  ******

  analysis           time    # points   tot. iter  conv.iter
  op point           0.05           1          11
  transient          0.00         101           0           0 rev=         0
  readin             0.03
  errchk             0.06
  setup              0.01
  output             0.00


           peak memory used        328.54 megabytes
           total cpu time            6.36 seconds
           total elapsed time        6.37 seconds
           job started at     21:01:20 07/31/2019
           job ended   at     21:01:26 07/31/2019


 lic: Release hspice token(s) 
 lic: total license checkout elapse time:        0.31(s)
