****** HSPICE -- O-2018.09 linux64 (Aug 26 2018) ******
 Input File: bhv3.sp
 lic:
 lic: FLEXlm: SDK_11.6.9.6
 lic: USER:   ychuang              HOSTNAME: adc
 lic: HOSTID: "b026281535a3"       PID:      37590
 lic: Using FLEXlm license file:
 lic: 26585@lsnctu
 lic: Checkout 1 hspice
 lic: License/Maintenance for hspice will expire on 14-may-2022/2018.09
 lic: 189(in_use)/190(total) FLOATING license(s) on SERVER 26585@lsnctu
 lic:
 init: begin read circuit files, cpu clock= 3.20E-01
       option search = /usr/cad/synopsys/hspice/cur/hspice/O-2018.09/hs
                         pice/parts/ad
       option runlvl
       option runlvl =     0.00
       option method = gear
       option lvltim =     2.00
       option vntol =    1.000E-06
       option reltol =    1.000E-06
       option rmin =    1.000E-15
       option delmax =    1.000E-09
       option post
       option probe
       option interp
 init: end read circuit files, cpu clock= 3.30E-01 peak memory=     321 mb
 init: begin check errors, cpu clock= 3.30E-01
  **warning**  No DC path to ground from node        1:
 init: end check errors, cpu clock= 4.70E-01 peak memory=     327 mb
 init: begin setup matrix, pivot=     0 cpu clock= 4.70E-01
       establish matrix -- done, cpu clock= 4.70E-01 peak memory=     327 mb
       re-order matrix -- done, cpu clock= 4.80E-01 peak memory=     327 mb
 init: end setup matrix, cpu clock= 5.00E-01 peak memory=     327 mb
 dcop: begin dcop, cpu clock= 5.10E-01
 dcop: end dcop, cpu clock= 5.90E-01 peak memory=     327 mb tot_iter=      11
 output: bhv3.tr0
 sweep: tran tran0    begin, stop_t=  1.00E-03 #sweeps= 101 cpu clock= 5.90E-01
 tran: time= 1.0000E-04 tot_iter=  340201 conv_iter=  138475 cpu clock= 2.36E+02
 tran: time= 2.0000E-04 tot_iter=  681454 conv_iter=  277068 cpu clock= 4.67E+02
 tran: time= 3.0000E-04 tot_iter= 1021700 conv_iter=  415565 cpu clock= 6.89E+02
 tran: time= 4.0000E-04 tot_iter= 1363337 conv_iter=  554462 cpu clock= 9.17E+02
 tran: time= 5.0000E-04 tot_iter= 1701938 conv_iter=  692629 cpu clock= 1.14E+03
 tran: time= 6.0000E-04 tot_iter= 2043209 conv_iter=  831296 cpu clock= 1.36E+03
 tran: time= 7.0000E-04 tot_iter= 2384692 conv_iter=  970171 cpu clock= 1.59E+03
 tran: time= 8.0000E-04 tot_iter= 2724617 conv_iter= 1108535 cpu clock= 1.81E+03
 tran: time= 9.0000E-04 tot_iter= 3065704 conv_iter= 1247018 cpu clock= 2.03E+03
 tran: time= 1.0000E-03 tot_iter= 3409401 conv_iter= 1386176 cpu clock= 2.26E+03
 sweep: tran tran0    end, cpu clock= 2.26E+03 peak memory=     322 mb
>info:         ***** hspice job concluded
 lic: Release hspice token(s)
